gem5 Simulator System.  http://gem5.org
gem5 is copyrighted software; use the --copyright option for details.

gem5 compiled Jun  2 2019 14:47:48
gem5 started Jun 11 2019 01:19:21
gem5 executing on 5e24d8f23dc5, pid 18579
command line: /workspace/gem5-aladdin/build/X86/gem5.opt --stats-db-file=stats.db --outdir=/workspace/gem5-aladdin/sweeps/machsuite/spmv_ellpack/0/outputs /workspace/gem5-aladdin/configs/aladdin/aladdin_se.py --num-cpus=0 --mem-size=4GB --enable-stats-dump --enable_prefetchers --prefetcher-type=stride --mem-type=DDR3_1600_8x8 --sys-clock=499MHz --cpu-type=DerivO3CPU --caches --cacheline_size=32 --accel_cfg_file=/workspace/gem5-aladdin/sweeps/machsuite/spmv_ellpack/0/gem5.cfg -c spmv-ellpack-gem5-accel -o ''

Global frequency set at 1000000000000 ticks per second
-------------------------------
      Setting ScratchPad       
-------------------------------
-------------------------------
      Generating DDDG          
-------------------------------
-------------------------------
Num of Nodes: 78548
Num of Edges: 171418
Num of Reg Edges: 92871
Num of MEM Edges: 0
Num of Control Edges: 78547
-------------------------------
-------------------------------
    Initializing BaseDatapath      
-------------------------------
 Top level: ellpack
=============================================
      Optimizing...            /workspace/gem5-aladdin/sweeps/machsuite/spmv_ellpack/0/outputs/spmv_ellpack
=============================================
-------------------------------
  Remove PHI and Convert Nodes 
-------------------------------
  Removing 51375 edges.
  Adding 35070 new edges.
  Removing 0 isolated nodes.
-------------------------------
  Remove Induction Dependence  
-------------------------------
-------------------------------
       Init Base Address       
-------------------------------
-------------------------------
     Init DMA Base Address     
-------------------------------
-------------------------------
        Mem to Reg Conv        
-------------------------------
-------------------------------
      ScratchPad Partition     
-------------------------------
-------------------------------
         Loop Flatten          
-------------------------------
  Removing 5434 isolated nodes.
  Removing 0 isolated nodes.
-------------------------------
         Loop Unrolling        
-------------------------------
  Adding 125970 new edges.
  Removing 0 isolated nodes.
  Removing 0 isolated nodes.
-------------------------------
          Load Buffer          
-------------------------------
  Adding 2785 new edges.
  Removing 13925 edges.
  Removing 0 isolated nodes.
-------------------------------
          Store Buffer         
-------------------------------
  Adding 0 new edges.
  Removing 0 isolated nodes.
  Removing 0 isolated nodes.
-------------------------------
    Remove Repeated Stores     
-------------------------------
-------------------------------
      Memory Ambiguation       
-------------------------------
  Adding 0 new edges.
-------------------------------
     Tree Height Reduction     
-------------------------------
  Removing 9880 edges.
  Adding 9880 new edges.
  Removing 0 isolated nodes.
-------------------------------
  Fuse register loads/stores   
-------------------------------
  Removing 0 edges.
  Adding 0 new edges.
  Removing 0 isolated nodes.
-------------------------------
   Fuse consecutive branches   
-------------------------------
  Removing 5434 edges.
  Adding 5434 new edges.
  Removing 0 isolated nodes.
-------------------------------
      Per Loop Pipelining      
-------------------------------
-------------------------------
         Loop Pipelining        
-------------------------------
=============================================
      Scheduling...            /workspace/gem5-aladdin/sweeps/machsuite/spmv_ellpack/0/outputs/spmv_ellpack
=============================================
  Total connected nodes: 60449
  Total edges: 244256
=============================================
**** REAL SIMULATION ****
===============================
        Aladdin Results        
===============================
Running : /workspace/gem5-aladdin/sweeps/machsuite/spmv_ellpack/0/outputs/spmv_ellpack
Top level function: ellpack
Cycle : 68129 cycles
Avg Power: 10.2083 mW
Idle FU Cycles: 54561 cycles
Avg FU Power: 7.72731 mW
Avg FU Dynamic Power: 5.69081 mW
Avg FU leakage Power: 2.0365 mW
Avg MEM Power: 2.48097 mW
Avg MEM Dynamic Power: 1.1882 mW
Avg MEM Leakage Power: 1.29277 mW
Total Area: 500473 uM^2
FU Area: 198031 uM^2
MEM Area: 302442 uM^2
Num of Double Precision FP Multipliers: 9
Num of Double Precision FP Adders: 5
Num of Shifters (32-bit): 1
Num of Registers (32-bit): 24
===============================
        Aladdin Results        
===============================
-------------------------------
      Generating DDDG          
-------------------------------
-------------------------------
Reached end of trace.
-------------------------------
Exiting @ tick 136258000 because Aladdin called exit()
