gem5 Simulator System.  http://gem5.org
gem5 is copyrighted software; use the --copyright option for details.

gem5 compiled Jun  2 2019 14:47:48
gem5 started Jun 17 2019 02:31:57
gem5 executing on 25fd82a6711a, pid 73
command line: /workspace/gem5-aladdin/build/X86/gem5.opt --stats-db-file=stats.db --outdir=/workspace/gem5-aladdin/sweeps/machsuite/gemm_blocked/3/outputs /workspace/gem5-aladdin/configs/aladdin/aladdin_se.py --num-cpus=0 --mem-size=4GB --enable-stats-dump --enable_prefetchers --prefetcher-type=stride --mem-type=DDR3_1600_8x8 --sys-clock=200MHz --cpu-type=DerivO3CPU --caches --cacheline_size=32 --accel_cfg_file=/workspace/gem5-aladdin/sweeps/machsuite/gemm_blocked/3/gem5.cfg -c gemm-blocked-gem5-accel -o ''

Global frequency set at 1000000000000 ticks per second
-------------------------------
      Setting ScratchPad       
-------------------------------
-------------------------------
      Generating DDDG          
-------------------------------
-------------------------------
Num of Nodes: 3801522
Num of Edges: 9204432
Num of Reg Edges: 5144863
Num of MEM Edges: 258048
Num of Control Edges: 3801521
-------------------------------
-------------------------------
    Initializing BaseDatapath      
-------------------------------
 Top level: bbgemm
=============================================
      Optimizing...            /workspace/gem5-aladdin/sweeps/machsuite/gemm_blocked/3/outputs/gemm_blocked
=============================================
-------------------------------
  Remove PHI and Convert Nodes 
-------------------------------
  Removing 1528167 edges.
  Adding 1109070 new edges.
  Removing 0 isolated nodes.
-------------------------------
  Remove Induction Dependence  
-------------------------------
-------------------------------
       Init Base Address       
-------------------------------
-------------------------------
     Init DMA Base Address     
-------------------------------
-------------------------------
        Mem to Reg Conv        
-------------------------------
-------------------------------
      ScratchPad Partition     
-------------------------------
-------------------------------
         Loop Flatten          
-------------------------------
  Removing 331776 isolated nodes.
  Removing 0 isolated nodes.
-------------------------------
         Loop Unrolling        
-------------------------------
  Adding 7000568 new edges.
  Removing 0 isolated nodes.
  Removing 0 isolated nodes.
-------------------------------
          Load Buffer          
-------------------------------
  Adding 0 new edges.
  Removing 0 edges.
  Removing 0 isolated nodes.
-------------------------------
          Store Buffer         
-------------------------------
  Adding 688128 new edges.
  Removing 229376 isolated nodes.
  Removing 0 isolated nodes.
-------------------------------
    Remove Repeated Stores     
-------------------------------
-------------------------------
      Memory Ambiguation       
-------------------------------
  Adding 0 new edges.
-------------------------------
     Tree Height Reduction     
-------------------------------
  Removing 0 edges.
  Adding 0 new edges.
  Removing 0 isolated nodes.
-------------------------------
  Fuse register loads/stores   
-------------------------------
  Removing 0 edges.
  Adding 0 new edges.
  Removing 0 isolated nodes.
-------------------------------
   Fuse consecutive branches   
-------------------------------
  Removing 331776 edges.
  Adding 331776 new edges.
  Removing 0 isolated nodes.
-------------------------------
      Per Loop Pipelining      
-------------------------------
-------------------------------
         Loop Pipelining        
-------------------------------
=============================================
      Scheduling...            /workspace/gem5-aladdin/sweeps/machsuite/gemm_blocked/3/outputs/gemm_blocked
=============================================
  Total connected nodes: 3272994
  Total edges: 13745880
=============================================
**** REAL SIMULATION ****
===============================
        Aladdin Results        
===============================
Running : /workspace/gem5-aladdin/sweeps/machsuite/gemm_blocked/3/outputs/gemm_blocked
Top level function: bbgemm
Cycle : 474326 cycles
Avg Power: 19.9641 mW
Idle FU Cycles: 245647 cycles
Avg FU Power: 16.5808 mW
Avg FU Dynamic Power: 15.0593 mW
Avg FU leakage Power: 1.52148 mW
Avg MEM Power: 3.38334 mW
Avg MEM Dynamic Power: 2.09057 mW
Avg MEM Leakage Power: 1.29277 mW
Total Area: 480158 uM^2
FU Area: 177716 uM^2
MEM Area: 302442 uM^2
Num of Double Precision FP Multipliers: 8
Num of Double Precision FP Adders: 8
Num of Shifters (32-bit): 9
Num of Registers (32-bit): 44
===============================
        Aladdin Results        
===============================
-------------------------------
      Generating DDDG          
-------------------------------
-------------------------------
Reached end of trace.
-------------------------------
Exiting @ tick 2371630000 because Aladdin called exit()
