
---------- Begin Simulation Statistics ----------
sim_seconds                                  0.000116                       # Number of seconds simulated
sim_ticks                                   115982000                       # Number of ticks simulated
final_tick                                  115982000                       # Number of ticks from beginning of simulation (restored from checkpoints and never reset)
sim_freq                                 1000000000000                       # Frequency of simulated ticks
host_tick_rate                              132361950                       # Simulator tick rate (ticks/s)
host_mem_usage                                4899388                       # Number of bytes of host memory used
host_seconds                                     0.88                       # Real time elapsed on the host
system.voltage_domain.voltage                       1                       # Voltage in Volts
system.clk_domain.clock                          2004                       # Clock period in ticks
system.mem_ctrls.pwrStateResidencyTicks::UNDEFINED    115982000                       # Cumulative time (in ticks) in various power states
system.mem_ctrls.bytes_read::.spmv_crs_datapath.system.spmv_crs_datapath.cache        20928                       # Number of bytes read from this memory
system.mem_ctrls.bytes_read::.spmv_crs_datapath.cache.prefetcher         9536                       # Number of bytes read from this memory
system.mem_ctrls.bytes_read::total              30464                       # Number of bytes read from this memory
system.mem_ctrls.bytes_written::.writebacks         2176                       # Number of bytes written to this memory
system.mem_ctrls.bytes_written::total            2176                       # Number of bytes written to this memory
system.mem_ctrls.num_reads::.spmv_crs_datapath.system.spmv_crs_datapath.cache          654                       # Number of read requests responded to by this memory
system.mem_ctrls.num_reads::.spmv_crs_datapath.cache.prefetcher          298                       # Number of read requests responded to by this memory
system.mem_ctrls.num_reads::total                 952                       # Number of read requests responded to by this memory
system.mem_ctrls.num_writes::.writebacks           68                       # Number of write requests responded to by this memory
system.mem_ctrls.num_writes::total                 68                       # Number of write requests responded to by this memory
system.mem_ctrls.bw_read::.spmv_crs_datapath.system.spmv_crs_datapath.cache    180441793                       # Total read bandwidth from this memory (bytes/s)
system.mem_ctrls.bw_read::.spmv_crs_datapath.cache.prefetcher     82219655                       # Total read bandwidth from this memory (bytes/s)
system.mem_ctrls.bw_read::total             262661447                       # Total read bandwidth from this memory (bytes/s)
system.mem_ctrls.bw_write::.writebacks       18761532                       # Write bandwidth from this memory (bytes/s)
system.mem_ctrls.bw_write::total             18761532                       # Write bandwidth from this memory (bytes/s)
system.mem_ctrls.bw_total::.writebacks       18761532                       # Total bandwidth to/from this memory (bytes/s)
system.mem_ctrls.bw_total::.spmv_crs_datapath.system.spmv_crs_datapath.cache    180441793                       # Total bandwidth to/from this memory (bytes/s)
system.mem_ctrls.bw_total::.spmv_crs_datapath.cache.prefetcher     82219655                       # Total bandwidth to/from this memory (bytes/s)
system.mem_ctrls.bw_total::total            281422979                       # Total bandwidth to/from this memory (bytes/s)
system.mem_ctrls.avgPriority_.writebacks::samples        36.00                       # Average QoS priority value for accepted requests
system.mem_ctrls.avgPriority_.spmv_crs_datapath.system.spmv_crs_datapath.cache::samples       654.00                       # Average QoS priority value for accepted requests
system.mem_ctrls.avgPriority_.spmv_crs_datapath.cache.prefetcher::samples       298.00                       # Average QoS priority value for accepted requests
system.mem_ctrls.priorityMinLatency      0.000000018750                       # per QoS priority minimum request to response latency (s)
system.mem_ctrls.priorityMaxLatency      0.000120952750                       # per QoS priority maximum request to response latency (s)
system.mem_ctrls.numReadWriteTurnArounds            1                       # Number of turnarounds from READ to WRITE
system.mem_ctrls.numWriteReadTurnArounds            1                       # Number of turnarounds from WRITE to READ
system.mem_ctrls.numStayReadState                1959                       # Number of times bus staying in READ state
system.mem_ctrls.numStayWriteState                 17                       # Number of times bus staying in WRITE state
system.mem_ctrls.readReqs                         952                       # Number of read requests accepted
system.mem_ctrls.writeReqs                         68                       # Number of write requests accepted
system.mem_ctrls.readBursts                       952                       # Number of DRAM read bursts, including those serviced by the write queue
system.mem_ctrls.writeBursts                       68                       # Number of DRAM write bursts, including those merged in the write queue
system.mem_ctrls.bytesReadDRAM                  60928                       # Total number of bytes read from DRAM
system.mem_ctrls.bytesReadWrQ                       0                       # Total number of bytes read from write queue
system.mem_ctrls.bytesWritten                    1152                       # Total number of bytes written to DRAM
system.mem_ctrls.bytesReadSys                   30464                       # Total read bytes from the system interface side
system.mem_ctrls.bytesWrittenSys                 2176                       # Total written bytes from the system interface side
system.mem_ctrls.servicedByWrQ                      0                       # Number of DRAM read bursts serviced by the write queue
system.mem_ctrls.mergedWrBursts                    32                       # Number of DRAM write bursts merged with an existing one
system.mem_ctrls.neitherReadNorWriteReqs            0                       # Number of requests that are neither read nor write
system.mem_ctrls.perBankRdBursts::0               270                       # Per bank write bursts
system.mem_ctrls.perBankRdBursts::1               129                       # Per bank write bursts
system.mem_ctrls.perBankRdBursts::2                 0                       # Per bank write bursts
system.mem_ctrls.perBankRdBursts::3                 0                       # Per bank write bursts
system.mem_ctrls.perBankRdBursts::4                 0                       # Per bank write bursts
system.mem_ctrls.perBankRdBursts::5                 0                       # Per bank write bursts
system.mem_ctrls.perBankRdBursts::6                 0                       # Per bank write bursts
system.mem_ctrls.perBankRdBursts::7                 0                       # Per bank write bursts
system.mem_ctrls.perBankRdBursts::8                 0                       # Per bank write bursts
system.mem_ctrls.perBankRdBursts::9                 0                       # Per bank write bursts
system.mem_ctrls.perBankRdBursts::10                0                       # Per bank write bursts
system.mem_ctrls.perBankRdBursts::11                0                       # Per bank write bursts
system.mem_ctrls.perBankRdBursts::12                0                       # Per bank write bursts
system.mem_ctrls.perBankRdBursts::13               40                       # Per bank write bursts
system.mem_ctrls.perBankRdBursts::14              256                       # Per bank write bursts
system.mem_ctrls.perBankRdBursts::15              257                       # Per bank write bursts
system.mem_ctrls.perBankWrBursts::0                 0                       # Per bank write bursts
system.mem_ctrls.perBankWrBursts::1                18                       # Per bank write bursts
system.mem_ctrls.perBankWrBursts::2                 0                       # Per bank write bursts
system.mem_ctrls.perBankWrBursts::3                 0                       # Per bank write bursts
system.mem_ctrls.perBankWrBursts::4                 0                       # Per bank write bursts
system.mem_ctrls.perBankWrBursts::5                 0                       # Per bank write bursts
system.mem_ctrls.perBankWrBursts::6                 0                       # Per bank write bursts
system.mem_ctrls.perBankWrBursts::7                 0                       # Per bank write bursts
system.mem_ctrls.perBankWrBursts::8                 0                       # Per bank write bursts
system.mem_ctrls.perBankWrBursts::9                 0                       # Per bank write bursts
system.mem_ctrls.perBankWrBursts::10                0                       # Per bank write bursts
system.mem_ctrls.perBankWrBursts::11                0                       # Per bank write bursts
system.mem_ctrls.perBankWrBursts::12                0                       # Per bank write bursts
system.mem_ctrls.perBankWrBursts::13                0                       # Per bank write bursts
system.mem_ctrls.perBankWrBursts::14                0                       # Per bank write bursts
system.mem_ctrls.perBankWrBursts::15                0                       # Per bank write bursts
system.mem_ctrls.numRdRetry                         0                       # Number of times read queue was full causing retry
system.mem_ctrls.numWrRetry                         0                       # Number of times write queue was full causing retry
system.mem_ctrls.totGap                     115704000                       # Total gap between requests
system.mem_ctrls.readPktSize::0                     0                       # Read request sizes (log2)
system.mem_ctrls.readPktSize::1                     0                       # Read request sizes (log2)
system.mem_ctrls.readPktSize::2                     0                       # Read request sizes (log2)
system.mem_ctrls.readPktSize::3                     0                       # Read request sizes (log2)
system.mem_ctrls.readPktSize::4                     0                       # Read request sizes (log2)
system.mem_ctrls.readPktSize::5                   952                       # Read request sizes (log2)
system.mem_ctrls.readPktSize::6                     0                       # Read request sizes (log2)
system.mem_ctrls.writePktSize::0                    0                       # Write request sizes (log2)
system.mem_ctrls.writePktSize::1                    0                       # Write request sizes (log2)
system.mem_ctrls.writePktSize::2                    0                       # Write request sizes (log2)
system.mem_ctrls.writePktSize::3                    0                       # Write request sizes (log2)
system.mem_ctrls.writePktSize::4                    0                       # Write request sizes (log2)
system.mem_ctrls.writePktSize::5                   68                       # Write request sizes (log2)
system.mem_ctrls.writePktSize::6                    0                       # Write request sizes (log2)
system.mem_ctrls.rdQLenPdf::0                     583                       # What read queue length does an incoming req see
system.mem_ctrls.rdQLenPdf::1                     210                       # What read queue length does an incoming req see
system.mem_ctrls.rdQLenPdf::2                      59                       # What read queue length does an incoming req see
system.mem_ctrls.rdQLenPdf::3                      20                       # What read queue length does an incoming req see
system.mem_ctrls.rdQLenPdf::4                      13                       # What read queue length does an incoming req see
system.mem_ctrls.rdQLenPdf::5                      20                       # What read queue length does an incoming req see
system.mem_ctrls.rdQLenPdf::6                      13                       # What read queue length does an incoming req see
system.mem_ctrls.rdQLenPdf::7                      12                       # What read queue length does an incoming req see
system.mem_ctrls.rdQLenPdf::8                       9                       # What read queue length does an incoming req see
system.mem_ctrls.rdQLenPdf::9                       5                       # What read queue length does an incoming req see
system.mem_ctrls.rdQLenPdf::10                      2                       # What read queue length does an incoming req see
system.mem_ctrls.rdQLenPdf::11                      3                       # What read queue length does an incoming req see
system.mem_ctrls.rdQLenPdf::12                      2                       # What read queue length does an incoming req see
system.mem_ctrls.rdQLenPdf::13                      1                       # What read queue length does an incoming req see
system.mem_ctrls.rdQLenPdf::14                      0                       # What read queue length does an incoming req see
system.mem_ctrls.rdQLenPdf::15                      0                       # What read queue length does an incoming req see
system.mem_ctrls.rdQLenPdf::16                      0                       # What read queue length does an incoming req see
system.mem_ctrls.rdQLenPdf::17                      0                       # What read queue length does an incoming req see
system.mem_ctrls.rdQLenPdf::18                      0                       # What read queue length does an incoming req see
system.mem_ctrls.rdQLenPdf::19                      0                       # What read queue length does an incoming req see
system.mem_ctrls.rdQLenPdf::20                      0                       # What read queue length does an incoming req see
system.mem_ctrls.rdQLenPdf::21                      0                       # What read queue length does an incoming req see
system.mem_ctrls.rdQLenPdf::22                      0                       # What read queue length does an incoming req see
system.mem_ctrls.rdQLenPdf::23                      0                       # What read queue length does an incoming req see
system.mem_ctrls.rdQLenPdf::24                      0                       # What read queue length does an incoming req see
system.mem_ctrls.rdQLenPdf::25                      0                       # What read queue length does an incoming req see
system.mem_ctrls.rdQLenPdf::26                      0                       # What read queue length does an incoming req see
system.mem_ctrls.rdQLenPdf::27                      0                       # What read queue length does an incoming req see
system.mem_ctrls.rdQLenPdf::28                      0                       # What read queue length does an incoming req see
system.mem_ctrls.rdQLenPdf::29                      0                       # What read queue length does an incoming req see
system.mem_ctrls.rdQLenPdf::30                      0                       # What read queue length does an incoming req see
system.mem_ctrls.rdQLenPdf::31                      0                       # What read queue length does an incoming req see
system.mem_ctrls.wrQLenPdf::0                       1                       # What write queue length does an incoming req see
system.mem_ctrls.wrQLenPdf::1                       1                       # What write queue length does an incoming req see
system.mem_ctrls.wrQLenPdf::2                       1                       # What write queue length does an incoming req see
system.mem_ctrls.wrQLenPdf::3                       1                       # What write queue length does an incoming req see
system.mem_ctrls.wrQLenPdf::4                       1                       # What write queue length does an incoming req see
system.mem_ctrls.wrQLenPdf::5                       1                       # What write queue length does an incoming req see
system.mem_ctrls.wrQLenPdf::6                       1                       # What write queue length does an incoming req see
system.mem_ctrls.wrQLenPdf::7                       1                       # What write queue length does an incoming req see
system.mem_ctrls.wrQLenPdf::8                       1                       # What write queue length does an incoming req see
system.mem_ctrls.wrQLenPdf::9                       1                       # What write queue length does an incoming req see
system.mem_ctrls.wrQLenPdf::10                      1                       # What write queue length does an incoming req see
system.mem_ctrls.wrQLenPdf::11                      1                       # What write queue length does an incoming req see
system.mem_ctrls.wrQLenPdf::12                      1                       # What write queue length does an incoming req see
system.mem_ctrls.wrQLenPdf::13                      1                       # What write queue length does an incoming req see
system.mem_ctrls.wrQLenPdf::14                      1                       # What write queue length does an incoming req see
system.mem_ctrls.wrQLenPdf::15                      2                       # What write queue length does an incoming req see
system.mem_ctrls.wrQLenPdf::16                      2                       # What write queue length does an incoming req see
system.mem_ctrls.wrQLenPdf::17                      2                       # What write queue length does an incoming req see
system.mem_ctrls.wrQLenPdf::18                      1                       # What write queue length does an incoming req see
system.mem_ctrls.wrQLenPdf::19                      1                       # What write queue length does an incoming req see
system.mem_ctrls.wrQLenPdf::20                      1                       # What write queue length does an incoming req see
system.mem_ctrls.wrQLenPdf::21                      1                       # What write queue length does an incoming req see
system.mem_ctrls.wrQLenPdf::22                      1                       # What write queue length does an incoming req see
system.mem_ctrls.wrQLenPdf::23                      1                       # What write queue length does an incoming req see
system.mem_ctrls.wrQLenPdf::24                      1                       # What write queue length does an incoming req see
system.mem_ctrls.wrQLenPdf::25                      1                       # What write queue length does an incoming req see
system.mem_ctrls.wrQLenPdf::26                      1                       # What write queue length does an incoming req see
system.mem_ctrls.wrQLenPdf::27                      1                       # What write queue length does an incoming req see
system.mem_ctrls.wrQLenPdf::28                      1                       # What write queue length does an incoming req see
system.mem_ctrls.wrQLenPdf::29                      1                       # What write queue length does an incoming req see
system.mem_ctrls.wrQLenPdf::30                      1                       # What write queue length does an incoming req see
system.mem_ctrls.wrQLenPdf::31                      1                       # What write queue length does an incoming req see
system.mem_ctrls.wrQLenPdf::32                      1                       # What write queue length does an incoming req see
system.mem_ctrls.wrQLenPdf::33                      0                       # What write queue length does an incoming req see
system.mem_ctrls.wrQLenPdf::34                      0                       # What write queue length does an incoming req see
system.mem_ctrls.wrQLenPdf::35                      0                       # What write queue length does an incoming req see
system.mem_ctrls.wrQLenPdf::36                      0                       # What write queue length does an incoming req see
system.mem_ctrls.wrQLenPdf::37                      0                       # What write queue length does an incoming req see
system.mem_ctrls.wrQLenPdf::38                      0                       # What write queue length does an incoming req see
system.mem_ctrls.wrQLenPdf::39                      0                       # What write queue length does an incoming req see
system.mem_ctrls.wrQLenPdf::40                      0                       # What write queue length does an incoming req see
system.mem_ctrls.wrQLenPdf::41                      0                       # What write queue length does an incoming req see
system.mem_ctrls.wrQLenPdf::42                      0                       # What write queue length does an incoming req see
system.mem_ctrls.wrQLenPdf::43                      0                       # What write queue length does an incoming req see
system.mem_ctrls.wrQLenPdf::44                      0                       # What write queue length does an incoming req see
system.mem_ctrls.wrQLenPdf::45                      0                       # What write queue length does an incoming req see
system.mem_ctrls.wrQLenPdf::46                      0                       # What write queue length does an incoming req see
system.mem_ctrls.wrQLenPdf::47                      0                       # What write queue length does an incoming req see
system.mem_ctrls.wrQLenPdf::48                      0                       # What write queue length does an incoming req see
system.mem_ctrls.wrQLenPdf::49                      0                       # What write queue length does an incoming req see
system.mem_ctrls.wrQLenPdf::50                      0                       # What write queue length does an incoming req see
system.mem_ctrls.wrQLenPdf::51                      0                       # What write queue length does an incoming req see
system.mem_ctrls.wrQLenPdf::52                      0                       # What write queue length does an incoming req see
system.mem_ctrls.wrQLenPdf::53                      0                       # What write queue length does an incoming req see
system.mem_ctrls.wrQLenPdf::54                      0                       # What write queue length does an incoming req see
system.mem_ctrls.wrQLenPdf::55                      0                       # What write queue length does an incoming req see
system.mem_ctrls.wrQLenPdf::56                      0                       # What write queue length does an incoming req see
system.mem_ctrls.wrQLenPdf::57                      0                       # What write queue length does an incoming req see
system.mem_ctrls.wrQLenPdf::58                      0                       # What write queue length does an incoming req see
system.mem_ctrls.wrQLenPdf::59                      0                       # What write queue length does an incoming req see
system.mem_ctrls.wrQLenPdf::60                      0                       # What write queue length does an incoming req see
system.mem_ctrls.wrQLenPdf::61                      0                       # What write queue length does an incoming req see
system.mem_ctrls.wrQLenPdf::62                      0                       # What write queue length does an incoming req see
system.mem_ctrls.wrQLenPdf::63                      0                       # What write queue length does an incoming req see
system.mem_ctrls.bytesPerActivate::samples           80                       # Bytes accessed per row activation
system.mem_ctrls.bytesPerActivate::mean    753.600000                       # Bytes accessed per row activation
system.mem_ctrls.bytesPerActivate::gmean   662.133523                       # Bytes accessed per row activation
system.mem_ctrls.bytesPerActivate::stdev   291.596114                       # Bytes accessed per row activation
system.mem_ctrls.bytesPerActivate::0-127            2      2.50%      2.50% # Bytes accessed per row activation
system.mem_ctrls.bytesPerActivate::128-255            4      5.00%      7.50% # Bytes accessed per row activation
system.mem_ctrls.bytesPerActivate::256-383            2      2.50%     10.00% # Bytes accessed per row activation
system.mem_ctrls.bytesPerActivate::384-511            8     10.00%     20.00% # Bytes accessed per row activation
system.mem_ctrls.bytesPerActivate::512-639           13     16.25%     36.25% # Bytes accessed per row activation
system.mem_ctrls.bytesPerActivate::640-767            3      3.75%     40.00% # Bytes accessed per row activation
system.mem_ctrls.bytesPerActivate::768-895            6      7.50%     47.50% # Bytes accessed per row activation
system.mem_ctrls.bytesPerActivate::896-1023           12     15.00%     62.50% # Bytes accessed per row activation
system.mem_ctrls.bytesPerActivate::1024-1151           30     37.50%    100.00% # Bytes accessed per row activation
system.mem_ctrls.bytesPerActivate::total           80                       # Bytes accessed per row activation
system.mem_ctrls.rdPerTurnAround::samples            1                       # Reads before turning the bus around for writes
system.mem_ctrls.rdPerTurnAround::mean            931                       # Reads before turning the bus around for writes
system.mem_ctrls.rdPerTurnAround::gmean    931.000000                       # Reads before turning the bus around for writes
system.mem_ctrls.rdPerTurnAround::stdev           nan                       # Reads before turning the bus around for writes
system.mem_ctrls.rdPerTurnAround::928-959            1    100.00%    100.00% # Reads before turning the bus around for writes
system.mem_ctrls.rdPerTurnAround::total             1                       # Reads before turning the bus around for writes
system.mem_ctrls.wrPerTurnAround::samples            1                       # Writes before turning the bus around for reads
system.mem_ctrls.wrPerTurnAround::mean             18                       # Writes before turning the bus around for reads
system.mem_ctrls.wrPerTurnAround::gmean     18.000000                       # Writes before turning the bus around for reads
system.mem_ctrls.wrPerTurnAround::stdev           nan                       # Writes before turning the bus around for reads
system.mem_ctrls.wrPerTurnAround::18                1    100.00%    100.00% # Writes before turning the bus around for reads
system.mem_ctrls.wrPerTurnAround::total             1                       # Writes before turning the bus around for reads
system.mem_ctrls.masterReadBytes::.spmv_crs_datapath.system.spmv_crs_datapath.cache        20928                       # Per-master bytes read from memory
system.mem_ctrls.masterReadBytes::.spmv_crs_datapath.cache.prefetcher         9536                       # Per-master bytes read from memory
system.mem_ctrls.masterWriteBytes::.writebacks          576                       # Per-master bytes write to memory
system.mem_ctrls.masterReadRate::.spmv_crs_datapath.system.spmv_crs_datapath.cache 180441792.691969454288                       # Per-master bytes read from memory rate (Bytes/sec)
system.mem_ctrls.masterReadRate::.spmv_crs_datapath.cache.prefetcher 82219654.774016663432                       # Per-master bytes read from memory rate (Bytes/sec)
system.mem_ctrls.masterWriteRate::.writebacks 4966287.872256039642                       # Per-master bytes write to memory rate (Bytes/sec)
system.mem_ctrls.masterReadAccesses::.spmv_crs_datapath.system.spmv_crs_datapath.cache          654                       # Per-master read serviced memory accesses
system.mem_ctrls.masterReadAccesses::.spmv_crs_datapath.cache.prefetcher          298                       # Per-master read serviced memory accesses
system.mem_ctrls.masterWriteAccesses::.writebacks           68                       # Per-master write serviced memory accesses
system.mem_ctrls.masterReadTotalLat::.spmv_crs_datapath.system.spmv_crs_datapath.cache     21309562                       # Per-master read total memory access latency
system.mem_ctrls.masterReadTotalLat::.spmv_crs_datapath.cache.prefetcher     11001425                       # Per-master read total memory access latency
system.mem_ctrls.masterWriteTotalLat::.writebacks    626775500                       # Per-master write total memory access latency
system.mem_ctrls.masterReadAvgLat::.spmv_crs_datapath.system.spmv_crs_datapath.cache     32583.43                       # Per-master read average memory access latency
system.mem_ctrls.masterReadAvgLat::.spmv_crs_datapath.cache.prefetcher     36917.53                       # Per-master read average memory access latency
system.mem_ctrls.masterWriteAvgLat::.writebacks   9217286.76                       # Per-master write average memory access latency
system.mem_ctrls.totQLat                     14460987                       # Total ticks spent queuing
system.mem_ctrls.totMemAccLat                32310987                       # Total ticks spent from burst creation until serviced by the DRAM
system.mem_ctrls.totBusLat                    4760000                       # Total ticks spent in databus transfers
system.mem_ctrls.avgQLat                     15190.11                       # Average queueing delay per DRAM burst
system.mem_ctrls.avgBusLat                    5000.00                       # Average bus latency per DRAM burst
system.mem_ctrls.avgMemAccLat                33940.11                       # Average memory access latency per DRAM burst
system.mem_ctrls.avgRdBW                       525.32                       # Average DRAM read bandwidth in MiByte/s
system.mem_ctrls.avgWrBW                         9.93                       # Average achieved write bandwidth in MiByte/s
system.mem_ctrls.avgRdBWSys                    262.66                       # Average system read bandwidth in MiByte/s
system.mem_ctrls.avgWrBWSys                     18.76                       # Average system write bandwidth in MiByte/s
system.mem_ctrls.peakBW                      12800.00                       # Theoretical peak bandwidth in MiByte/s
system.mem_ctrls.busUtil                         4.18                       # Data bus utilization in percentage
system.mem_ctrls.busUtilRead                     4.10                       # Data bus utilization in percentage for reads
system.mem_ctrls.busUtilWrite                    0.08                       # Data bus utilization in percentage for writes
system.mem_ctrls.avgRdQLen                       1.68                       # Average read queue length when enqueuing
system.mem_ctrls.avgWrQLen                       7.11                       # Average write queue length when enqueuing
system.mem_ctrls.readRowHits                      870                       # Number of row buffer hits during reads
system.mem_ctrls.writeRowHits                      17                       # Number of row buffer hits during writes
system.mem_ctrls.readRowHitRate                 91.39                       # Row buffer hit rate for reads
system.mem_ctrls.writeRowHitRate                47.22                       # Row buffer hit rate for writes
system.mem_ctrls.avgGap                     113435.29                       # Average gap between requests
system.mem_ctrls.pageHitRate                    89.78                       # Row buffer hit rate, read and write combined
system.mem_ctrls_0.actEnergy                   285600                       # Energy for activate commands per rank (pJ)
system.mem_ctrls_0.preEnergy                   144210                       # Energy for precharge commands per rank (pJ)
system.mem_ctrls_0.readEnergy                 2848860                       # Energy for read commands per rank (pJ)
system.mem_ctrls_0.writeEnergy                  93960                       # Energy for write commands per rank (pJ)
system.mem_ctrls_0.refreshEnergy         8604960.000000                       # Energy for refresh commands per rank (pJ)
system.mem_ctrls_0.actBackEnergy              7026390                       # Energy for active background per rank (pJ)
system.mem_ctrls_0.preBackEnergy               234720                       # Energy for precharge background per rank (pJ)
system.mem_ctrls_0.actPowerDownEnergy        44524980                       # Energy for active power-down per rank (pJ)
system.mem_ctrls_0.prePowerDownEnergy          890880                       # Energy for precharge power-down per rank (pJ)
system.mem_ctrls_0.selfRefreshEnergy                0                       # Energy for self refresh per rank (pJ)
system.mem_ctrls_0.totalEnergy               64654560                       # Total energy per rank (pJ)
system.mem_ctrls_0.averagePower            557.453398                       # Core power per rank (mW)
system.mem_ctrls_0.totalIdleTime             99581848                       # Total Idle time Per DRAM Rank
system.mem_ctrls_0.memoryStateTime::IDLE       208000                       # Time in different power states
system.mem_ctrls_0.memoryStateTime::REF       3640000                       # Time in different power states
system.mem_ctrls_0.memoryStateTime::SREF            0                       # Time in different power states
system.mem_ctrls_0.memoryStateTime::PRE_PDN      2316718                       # Time in different power states
system.mem_ctrls_0.memoryStateTime::ACT      12158402                       # Time in different power states
system.mem_ctrls_0.memoryStateTime::ACT_PDN     97658880                       # Time in different power states
system.mem_ctrls_1.actEnergy                   307020                       # Energy for activate commands per rank (pJ)
system.mem_ctrls_1.preEnergy                   159390                       # Energy for precharge commands per rank (pJ)
system.mem_ctrls_1.readEnergy                 3948420                       # Energy for read commands per rank (pJ)
system.mem_ctrls_1.writeEnergy                      0                       # Energy for write commands per rank (pJ)
system.mem_ctrls_1.refreshEnergy         8604960.000000                       # Energy for refresh commands per rank (pJ)
system.mem_ctrls_1.actBackEnergy              7162620                       # Energy for active background per rank (pJ)
system.mem_ctrls_1.preBackEnergy               263040                       # Energy for precharge background per rank (pJ)
system.mem_ctrls_1.actPowerDownEnergy        44219460                       # Energy for active power-down per rank (pJ)
system.mem_ctrls_1.prePowerDownEnergy         1005120                       # Energy for precharge power-down per rank (pJ)
system.mem_ctrls_1.selfRefreshEnergy                0                       # Energy for self refresh per rank (pJ)
system.mem_ctrls_1.totalEnergy               65670030                       # Total energy per rank (pJ)
system.mem_ctrls_1.averagePower            566.208808                       # Core power per rank (mW)
system.mem_ctrls_1.totalIdleTime             99463788                       # Total Idle time Per DRAM Rank
system.mem_ctrls_1.memoryStateTime::IDLE       216240                       # Time in different power states
system.mem_ctrls_1.memoryStateTime::REF       3640000                       # Time in different power states
system.mem_ctrls_1.memoryStateTime::SREF            0                       # Time in different power states
system.mem_ctrls_1.memoryStateTime::PRE_PDN      2615000                       # Time in different power states
system.mem_ctrls_1.memoryStateTime::ACT      12526722                       # Time in different power states
system.mem_ctrls_1.memoryStateTime::ACT_PDN     96984038                       # Time in different power states
system.pwrStateResidencyTicks::UNDEFINED    115982000                       # Cumulative time (in ticks) in various power states
system.cpu_voltage_domain.voltage                   1                       # Voltage in Volts
system.cpu_clk_domain.clock                       500                       # Clock period in ticks
system.membus.snoop_filter.tot_requests          1392                       # Total number of requests made to the snoop filter.
system.membus.snoop_filter.hit_single_requests          440                       # Number of requests hitting in the snoop filter with a single holder of the requested data.
system.membus.snoop_filter.hit_multi_requests            0                       # Number of requests hitting in the snoop filter with multiple (>1) holders of the requested data.
system.membus.snoop_filter.tot_snoops               0                       # Total number of snoops made to the snoop filter.
system.membus.snoop_filter.hit_single_snoops            0                       # Number of snoops hitting in the snoop filter with a single holder of the requested data.
system.membus.snoop_filter.hit_multi_snoops            0                       # Number of snoops hitting in the snoop filter with multiple (>1) holders of the requested data.
system.membus.pwrStateResidencyTicks::UNDEFINED    115982000                       # Cumulative time (in ticks) in various power states
system.membus.trans_dist::ReadResp                951                       # Transaction distribution
system.membus.trans_dist::WritebackDirty           68                       # Transaction distribution
system.membus.trans_dist::CleanEvict              372                       # Transaction distribution
system.membus.trans_dist::ReadExReq                 1                       # Transaction distribution
system.membus.trans_dist::ReadExResp                1                       # Transaction distribution
system.membus.trans_dist::ReadSharedReq           951                       # Transaction distribution
system.membus.pkt_count_system.spmv_crs_datapath.cache.mem_side::system.mem_ctrls.port         2344                       # Packet count per connected master and slave (bytes)
system.membus.pkt_count::total                   2344                       # Packet count per connected master and slave (bytes)
system.membus.pkt_size_system.spmv_crs_datapath.cache.mem_side::system.mem_ctrls.port        32640                       # Cumulative packet size per connected master and slave (bytes)
system.membus.pkt_size::total                   32640                       # Cumulative packet size per connected master and slave (bytes)
system.membus.snoops                                0                       # Total snoops (count)
system.membus.snoopTraffic                          0                       # Total snoop traffic (bytes)
system.membus.snoop_fanout::samples               952                       # Request fanout histogram
system.membus.snoop_fanout::mean                    0                       # Request fanout histogram
system.membus.snoop_fanout::stdev                   0                       # Request fanout histogram
system.membus.snoop_fanout::underflows              0      0.00%      0.00% # Request fanout histogram
system.membus.snoop_fanout::0                     952    100.00%    100.00% # Request fanout histogram
system.membus.snoop_fanout::1                       0      0.00%    100.00% # Request fanout histogram
system.membus.snoop_fanout::2                       0      0.00%    100.00% # Request fanout histogram
system.membus.snoop_fanout::overflows               0      0.00%    100.00% # Request fanout histogram
system.membus.snoop_fanout::min_value               0                       # Request fanout histogram
system.membus.snoop_fanout::max_value               0                       # Request fanout histogram
system.membus.snoop_fanout::total                 952                       # Request fanout histogram
system.membus.reqLayer0.occupancy             4056462                       # Layer occupancy (ticks)
system.membus.reqLayer0.utilization               3.5                       # Layer utilization (%)
system.membus.respLayer1.occupancy            6545464                       # Layer occupancy (ticks)
system.membus.respLayer1.utilization              5.6                       # Layer utilization (%)
system.spmv_crs_datapath.clk_domain.clock         2000                       # Clock period in ticks
system.spmv_crs_datapath.pwrStateResidencyTicks::UNDEFINED    115982000                       # Cumulative time (in ticks) in various power states
system.spmv_crs_datapath.cache_queue_reads            0                       # Number of reads to the spmv_crs_datapath.cache_queue
system.spmv_crs_datapath.cache_queue_writes            0                       # Number of writes to the spmv_crs_datapath.cache_queue
system.spmv_crs_datapath.total_dcache_loads         3443                       # Total number of dcache loads
system.spmv_crs_datapath.total_dcache_stores          494                       # Total number of dcache stores.
system.spmv_crs_datapath.dcache_latency::samples         3937                       # Histogram of dcache total access latency
system.spmv_crs_datapath.dcache_latency::mean 15100.980950                       # Histogram of dcache total access latency
system.spmv_crs_datapath.dcache_latency::gmean  3676.100702                       # Histogram of dcache total access latency
system.spmv_crs_datapath.dcache_latency::stdev 32439.461466                       # Histogram of dcache total access latency
system.spmv_crs_datapath.dcache_latency::0-16383         3283     83.39%     83.39% # Histogram of dcache total access latency
system.spmv_crs_datapath.dcache_latency::16384-32767            0      0.00%     83.39% # Histogram of dcache total access latency
system.spmv_crs_datapath.dcache_latency::32768-49151            0      0.00%     83.39% # Histogram of dcache total access latency
system.spmv_crs_datapath.dcache_latency::49152-65535            0      0.00%     83.39% # Histogram of dcache total access latency
system.spmv_crs_datapath.dcache_latency::65536-81919          554     14.07%     97.46% # Histogram of dcache total access latency
system.spmv_crs_datapath.dcache_latency::81920-98303           76      1.93%     99.39% # Histogram of dcache total access latency
system.spmv_crs_datapath.dcache_latency::98304-114687            5      0.13%     99.52% # Histogram of dcache total access latency
system.spmv_crs_datapath.dcache_latency::114688-131071            0      0.00%     99.52% # Histogram of dcache total access latency
system.spmv_crs_datapath.dcache_latency::131072-147455            0      0.00%     99.52% # Histogram of dcache total access latency
system.spmv_crs_datapath.dcache_latency::147456-163839            0      0.00%     99.52% # Histogram of dcache total access latency
system.spmv_crs_datapath.dcache_latency::163840-180223            0      0.00%     99.52% # Histogram of dcache total access latency
system.spmv_crs_datapath.dcache_latency::180224-196607            2      0.05%     99.57% # Histogram of dcache total access latency
system.spmv_crs_datapath.dcache_latency::196608-212991            2      0.05%     99.62% # Histogram of dcache total access latency
system.spmv_crs_datapath.dcache_latency::212992-229375            2      0.05%     99.67% # Histogram of dcache total access latency
system.spmv_crs_datapath.dcache_latency::229376-245759            4      0.10%     99.77% # Histogram of dcache total access latency
system.spmv_crs_datapath.dcache_latency::245760-262143            1      0.03%     99.80% # Histogram of dcache total access latency
system.spmv_crs_datapath.dcache_latency::262144-278527            0      0.00%     99.80% # Histogram of dcache total access latency
system.spmv_crs_datapath.dcache_latency::278528-294911            1      0.03%     99.82% # Histogram of dcache total access latency
system.spmv_crs_datapath.dcache_latency::294912-311295            2      0.05%     99.87% # Histogram of dcache total access latency
system.spmv_crs_datapath.dcache_latency::311296-327679            1      0.03%     99.90% # Histogram of dcache total access latency
system.spmv_crs_datapath.dcache_latency::327680-344063            2      0.05%     99.95% # Histogram of dcache total access latency
system.spmv_crs_datapath.dcache_latency::344064-360447            0      0.00%     99.95% # Histogram of dcache total access latency
system.spmv_crs_datapath.dcache_latency::360448-376831            2      0.05%    100.00% # Histogram of dcache total access latency
system.spmv_crs_datapath.dcache_latency::376832-393215            0      0.00%    100.00% # Histogram of dcache total access latency
system.spmv_crs_datapath.dcache_latency::393216-409599            0      0.00%    100.00% # Histogram of dcache total access latency
system.spmv_crs_datapath.dcache_latency::409600-425983            0      0.00%    100.00% # Histogram of dcache total access latency
system.spmv_crs_datapath.dcache_latency::425984-442367            0      0.00%    100.00% # Histogram of dcache total access latency
system.spmv_crs_datapath.dcache_latency::442368-458751            0      0.00%    100.00% # Histogram of dcache total access latency
system.spmv_crs_datapath.dcache_latency::458752-475135            0      0.00%    100.00% # Histogram of dcache total access latency
system.spmv_crs_datapath.dcache_latency::475136-491519            0      0.00%    100.00% # Histogram of dcache total access latency
system.spmv_crs_datapath.dcache_latency::total         3937                       # Histogram of dcache total access latency
system.spmv_crs_datapath.dcache_queue_time::samples         3937                       # Histogram of time dcache request spent in queue
system.spmv_crs_datapath.dcache_queue_time::mean 42236.728473                       # Histogram of time dcache request spent in queue
system.spmv_crs_datapath.dcache_queue_time::gmean 42197.939041                       # Histogram of time dcache request spent in queue
system.spmv_crs_datapath.dcache_queue_time::stdev  2279.914567                       # Histogram of time dcache request spent in queue
system.spmv_crs_datapath.dcache_queue_time::0-4095            0      0.00%      0.00% # Histogram of time dcache request spent in queue
system.spmv_crs_datapath.dcache_queue_time::4096-8191            0      0.00%      0.00% # Histogram of time dcache request spent in queue
system.spmv_crs_datapath.dcache_queue_time::8192-12287            0      0.00%      0.00% # Histogram of time dcache request spent in queue
system.spmv_crs_datapath.dcache_queue_time::12288-16383            0      0.00%      0.00% # Histogram of time dcache request spent in queue
system.spmv_crs_datapath.dcache_queue_time::16384-20479            0      0.00%      0.00% # Histogram of time dcache request spent in queue
system.spmv_crs_datapath.dcache_queue_time::20480-24575            0      0.00%      0.00% # Histogram of time dcache request spent in queue
system.spmv_crs_datapath.dcache_queue_time::24576-28671            0      0.00%      0.00% # Histogram of time dcache request spent in queue
system.spmv_crs_datapath.dcache_queue_time::28672-32767            0      0.00%      0.00% # Histogram of time dcache request spent in queue
system.spmv_crs_datapath.dcache_queue_time::32768-36863            0      0.00%      0.00% # Histogram of time dcache request spent in queue
system.spmv_crs_datapath.dcache_queue_time::36864-40959            0      0.00%      0.00% # Histogram of time dcache request spent in queue
system.spmv_crs_datapath.dcache_queue_time::40960-45055         3926     99.72%     99.72% # Histogram of time dcache request spent in queue
system.spmv_crs_datapath.dcache_queue_time::45056-49151            0      0.00%     99.72% # Histogram of time dcache request spent in queue
system.spmv_crs_datapath.dcache_queue_time::49152-53247            0      0.00%     99.72% # Histogram of time dcache request spent in queue
system.spmv_crs_datapath.dcache_queue_time::53248-57343            0      0.00%     99.72% # Histogram of time dcache request spent in queue
system.spmv_crs_datapath.dcache_queue_time::57344-61439            0      0.00%     99.72% # Histogram of time dcache request spent in queue
system.spmv_crs_datapath.dcache_queue_time::61440-65535            0      0.00%     99.72% # Histogram of time dcache request spent in queue
system.spmv_crs_datapath.dcache_queue_time::65536-69631            0      0.00%     99.72% # Histogram of time dcache request spent in queue
system.spmv_crs_datapath.dcache_queue_time::69632-73727            0      0.00%     99.72% # Histogram of time dcache request spent in queue
system.spmv_crs_datapath.dcache_queue_time::73728-77823            0      0.00%     99.72% # Histogram of time dcache request spent in queue
system.spmv_crs_datapath.dcache_queue_time::77824-81919            0      0.00%     99.72% # Histogram of time dcache request spent in queue
system.spmv_crs_datapath.dcache_queue_time::81920-86015           11      0.28%    100.00% # Histogram of time dcache request spent in queue
system.spmv_crs_datapath.dcache_queue_time::86016-90111            0      0.00%    100.00% # Histogram of time dcache request spent in queue
system.spmv_crs_datapath.dcache_queue_time::90112-94207            0      0.00%    100.00% # Histogram of time dcache request spent in queue
system.spmv_crs_datapath.dcache_queue_time::94208-98303            0      0.00%    100.00% # Histogram of time dcache request spent in queue
system.spmv_crs_datapath.dcache_queue_time::98304-102399            0      0.00%    100.00% # Histogram of time dcache request spent in queue
system.spmv_crs_datapath.dcache_queue_time::102400-106495            0      0.00%    100.00% # Histogram of time dcache request spent in queue
system.spmv_crs_datapath.dcache_queue_time::106496-110591            0      0.00%    100.00% # Histogram of time dcache request spent in queue
system.spmv_crs_datapath.dcache_queue_time::110592-114687            0      0.00%    100.00% # Histogram of time dcache request spent in queue
system.spmv_crs_datapath.dcache_queue_time::114688-118783            0      0.00%    100.00% # Histogram of time dcache request spent in queue
system.spmv_crs_datapath.dcache_queue_time::118784-122879            0      0.00%    100.00% # Histogram of time dcache request spent in queue
system.spmv_crs_datapath.dcache_queue_time::total         3937                       # Histogram of time dcache request spent in queue
system.spmv_crs_datapath.total_acp_loads            0                       # Total number of ACP loads
system.spmv_crs_datapath.total_acp_stores            0                       # Total number of ACP stores.
system.spmv_crs_datapath.acp_latency::samples            0                       # Histogram of ACP transaction total latency
system.spmv_crs_datapath.acp_latency::mean          nan                       # Histogram of ACP transaction total latency
system.spmv_crs_datapath.acp_latency::gmean          nan                       # Histogram of ACP transaction total latency
system.spmv_crs_datapath.acp_latency::stdev          nan                       # Histogram of ACP transaction total latency
system.spmv_crs_datapath.acp_latency::0             0                       # Histogram of ACP transaction total latency
system.spmv_crs_datapath.acp_latency::1             0                       # Histogram of ACP transaction total latency
system.spmv_crs_datapath.acp_latency::2             0                       # Histogram of ACP transaction total latency
system.spmv_crs_datapath.acp_latency::3             0                       # Histogram of ACP transaction total latency
system.spmv_crs_datapath.acp_latency::4             0                       # Histogram of ACP transaction total latency
system.spmv_crs_datapath.acp_latency::5             0                       # Histogram of ACP transaction total latency
system.spmv_crs_datapath.acp_latency::6             0                       # Histogram of ACP transaction total latency
system.spmv_crs_datapath.acp_latency::7             0                       # Histogram of ACP transaction total latency
system.spmv_crs_datapath.acp_latency::8             0                       # Histogram of ACP transaction total latency
system.spmv_crs_datapath.acp_latency::9             0                       # Histogram of ACP transaction total latency
system.spmv_crs_datapath.acp_latency::10            0                       # Histogram of ACP transaction total latency
system.spmv_crs_datapath.acp_latency::11            0                       # Histogram of ACP transaction total latency
system.spmv_crs_datapath.acp_latency::12            0                       # Histogram of ACP transaction total latency
system.spmv_crs_datapath.acp_latency::13            0                       # Histogram of ACP transaction total latency
system.spmv_crs_datapath.acp_latency::14            0                       # Histogram of ACP transaction total latency
system.spmv_crs_datapath.acp_latency::15            0                       # Histogram of ACP transaction total latency
system.spmv_crs_datapath.acp_latency::16            0                       # Histogram of ACP transaction total latency
system.spmv_crs_datapath.acp_latency::17            0                       # Histogram of ACP transaction total latency
system.spmv_crs_datapath.acp_latency::18            0                       # Histogram of ACP transaction total latency
system.spmv_crs_datapath.acp_latency::19            0                       # Histogram of ACP transaction total latency
system.spmv_crs_datapath.acp_latency::20            0                       # Histogram of ACP transaction total latency
system.spmv_crs_datapath.acp_latency::21            0                       # Histogram of ACP transaction total latency
system.spmv_crs_datapath.acp_latency::22            0                       # Histogram of ACP transaction total latency
system.spmv_crs_datapath.acp_latency::23            0                       # Histogram of ACP transaction total latency
system.spmv_crs_datapath.acp_latency::24            0                       # Histogram of ACP transaction total latency
system.spmv_crs_datapath.acp_latency::25            0                       # Histogram of ACP transaction total latency
system.spmv_crs_datapath.acp_latency::26            0                       # Histogram of ACP transaction total latency
system.spmv_crs_datapath.acp_latency::27            0                       # Histogram of ACP transaction total latency
system.spmv_crs_datapath.acp_latency::28            0                       # Histogram of ACP transaction total latency
system.spmv_crs_datapath.acp_latency::29            0                       # Histogram of ACP transaction total latency
system.spmv_crs_datapath.acp_latency::total            0                       # Histogram of ACP transaction total latency
system.spmv_crs_datapath.acp_queue_time::samples            0                       # Histogram of time ACP request spent in queue
system.spmv_crs_datapath.acp_queue_time::mean          nan                       # Histogram of time ACP request spent in queue
system.spmv_crs_datapath.acp_queue_time::gmean          nan                       # Histogram of time ACP request spent in queue
system.spmv_crs_datapath.acp_queue_time::stdev          nan                       # Histogram of time ACP request spent in queue
system.spmv_crs_datapath.acp_queue_time::0            0                       # Histogram of time ACP request spent in queue
system.spmv_crs_datapath.acp_queue_time::1            0                       # Histogram of time ACP request spent in queue
system.spmv_crs_datapath.acp_queue_time::2            0                       # Histogram of time ACP request spent in queue
system.spmv_crs_datapath.acp_queue_time::3            0                       # Histogram of time ACP request spent in queue
system.spmv_crs_datapath.acp_queue_time::4            0                       # Histogram of time ACP request spent in queue
system.spmv_crs_datapath.acp_queue_time::5            0                       # Histogram of time ACP request spent in queue
system.spmv_crs_datapath.acp_queue_time::6            0                       # Histogram of time ACP request spent in queue
system.spmv_crs_datapath.acp_queue_time::7            0                       # Histogram of time ACP request spent in queue
system.spmv_crs_datapath.acp_queue_time::8            0                       # Histogram of time ACP request spent in queue
system.spmv_crs_datapath.acp_queue_time::9            0                       # Histogram of time ACP request spent in queue
system.spmv_crs_datapath.acp_queue_time::10            0                       # Histogram of time ACP request spent in queue
system.spmv_crs_datapath.acp_queue_time::11            0                       # Histogram of time ACP request spent in queue
system.spmv_crs_datapath.acp_queue_time::12            0                       # Histogram of time ACP request spent in queue
system.spmv_crs_datapath.acp_queue_time::13            0                       # Histogram of time ACP request spent in queue
system.spmv_crs_datapath.acp_queue_time::14            0                       # Histogram of time ACP request spent in queue
system.spmv_crs_datapath.acp_queue_time::15            0                       # Histogram of time ACP request spent in queue
system.spmv_crs_datapath.acp_queue_time::16            0                       # Histogram of time ACP request spent in queue
system.spmv_crs_datapath.acp_queue_time::17            0                       # Histogram of time ACP request spent in queue
system.spmv_crs_datapath.acp_queue_time::18            0                       # Histogram of time ACP request spent in queue
system.spmv_crs_datapath.acp_queue_time::19            0                       # Histogram of time ACP request spent in queue
system.spmv_crs_datapath.acp_queue_time::20            0                       # Histogram of time ACP request spent in queue
system.spmv_crs_datapath.acp_queue_time::21            0                       # Histogram of time ACP request spent in queue
system.spmv_crs_datapath.acp_queue_time::22            0                       # Histogram of time ACP request spent in queue
system.spmv_crs_datapath.acp_queue_time::23            0                       # Histogram of time ACP request spent in queue
system.spmv_crs_datapath.acp_queue_time::24            0                       # Histogram of time ACP request spent in queue
system.spmv_crs_datapath.acp_queue_time::25            0                       # Histogram of time ACP request spent in queue
system.spmv_crs_datapath.acp_queue_time::26            0                       # Histogram of time ACP request spent in queue
system.spmv_crs_datapath.acp_queue_time::27            0                       # Histogram of time ACP request spent in queue
system.spmv_crs_datapath.acp_queue_time::28            0                       # Histogram of time ACP request spent in queue
system.spmv_crs_datapath.acp_queue_time::29            0                       # Histogram of time ACP request spent in queue
system.spmv_crs_datapath.acp_queue_time::total            0                       # Histogram of time ACP request spent in queue
system.spmv_crs_datapath.dma_setup_cycles           15                       # Total number of cycles spent on setting up DMA transfers.
system.spmv_crs_datapath.sim_cycles             57976                       # Total accelerator cycles
system.spmv_crs_datapath.tlb.hits                3937                       # TLB hits
system.spmv_crs_datapath.tlb.misses                11                       # TLB misses
system.spmv_crs_datapath.tlb.reads               3948                       # TLB reads
system.spmv_crs_datapath.tlb.updates                8                       # TLB updates
system.spmv_crs_datapath.tlb.hitRate         0.997214                       # TLB hit rate
system.spmv_crs_datapath.cache.prefetcher.pwrStateResidencyTicks::UNDEFINED    115982000                       # Cumulative time (in ticks) in various power states
system.spmv_crs_datapath.cache.prefetcher.num_hwpf_issued         7809                       # number of hwpf issued
system.spmv_crs_datapath.cache.prefetcher.pfIdentified         8366                       # number of prefetch candidates identified
system.spmv_crs_datapath.cache.prefetcher.pfBufferHit          476                       # number of redundant prefetches already in prefetch queue
system.spmv_crs_datapath.cache.prefetcher.pfInCache            0                       # number of redundant prefetches already in cache/mshr dropped
system.spmv_crs_datapath.cache.prefetcher.pfRemovedFull            0                       # number of prefetches dropped due to prefetch queue size
system.spmv_crs_datapath.cache.prefetcher.pfSpanPage          402                       # number of prefetches not generated due to page crossing
system.spmv_crs_datapath.cache.tags.pwrStateResidencyTicks::UNDEFINED    115982000                       # Cumulative time (in ticks) in various power states
system.spmv_crs_datapath.cache.tags.tagsinuse   396.980402                       # Cycle average of tags in use
system.spmv_crs_datapath.cache.tags.total_refs         4235                       # Total number of references to valid blocks.
system.spmv_crs_datapath.cache.tags.sampled_refs          952                       # Sample count of references to valid blocks.
system.spmv_crs_datapath.cache.tags.avg_refs     4.448529                       # Average number of references to valid blocks.
system.spmv_crs_datapath.cache.tags.warmup_cycle       192384                       # Cycle when the warmup percentage was hit.
system.spmv_crs_datapath.cache.tags.occ_blocks::.spmv_crs_datapath.system.spmv_crs_datapath.cache   286.185736                       # Average occupied blocks per requestor
system.spmv_crs_datapath.cache.tags.occ_blocks::.spmv_crs_datapath.cache.prefetcher   110.794666                       # Average occupied blocks per requestor
system.spmv_crs_datapath.cache.tags.occ_percent::.spmv_crs_datapath.system.spmv_crs_datapath.cache     0.558957                       # Average percentage of cache occupancy
system.spmv_crs_datapath.cache.tags.occ_percent::.spmv_crs_datapath.cache.prefetcher     0.216396                       # Average percentage of cache occupancy
system.spmv_crs_datapath.cache.tags.occ_percent::total     0.775352                       # Average percentage of cache occupancy
system.spmv_crs_datapath.cache.tags.occ_task_id_blocks::1022          164                       # Occupied blocks per task id
system.spmv_crs_datapath.cache.tags.occ_task_id_blocks::1024          348                       # Occupied blocks per task id
system.spmv_crs_datapath.cache.tags.age_task_id_blocks_1022::0           22                       # Occupied blocks per task id
system.spmv_crs_datapath.cache.tags.age_task_id_blocks_1022::1          142                       # Occupied blocks per task id
system.spmv_crs_datapath.cache.tags.age_task_id_blocks_1024::0           46                       # Occupied blocks per task id
system.spmv_crs_datapath.cache.tags.age_task_id_blocks_1024::1          240                       # Occupied blocks per task id
system.spmv_crs_datapath.cache.tags.age_task_id_blocks_1024::2           62                       # Occupied blocks per task id
system.spmv_crs_datapath.cache.tags.occ_task_id_percent::1022     0.320312                       # Percentage of cache occupancy per task id
system.spmv_crs_datapath.cache.tags.occ_task_id_percent::1024     0.679688                       # Percentage of cache occupancy per task id
system.spmv_crs_datapath.cache.tags.tag_accesses        16700                       # Number of tag accesses
system.spmv_crs_datapath.cache.tags.data_accesses        16700                       # Number of data accesses
system.spmv_crs_datapath.cache.pwrStateResidencyTicks::UNDEFINED    115982000                       # Cumulative time (in ticks) in various power states
system.spmv_crs_datapath.cache.ReadReq_hits::.spmv_crs_datapath.system.spmv_crs_datapath.cache         2790                       # number of ReadReq hits
system.spmv_crs_datapath.cache.ReadReq_hits::total         2790                       # number of ReadReq hits
system.spmv_crs_datapath.cache.WriteReq_hits::.spmv_crs_datapath.system.spmv_crs_datapath.cache          493                       # number of WriteReq hits
system.spmv_crs_datapath.cache.WriteReq_hits::total          493                       # number of WriteReq hits
system.spmv_crs_datapath.cache.demand_hits::.spmv_crs_datapath.system.spmv_crs_datapath.cache         3283                       # number of demand (read+write) hits
system.spmv_crs_datapath.cache.demand_hits::total         3283                       # number of demand (read+write) hits
system.spmv_crs_datapath.cache.overall_hits::.spmv_crs_datapath.system.spmv_crs_datapath.cache         3283                       # number of overall hits
system.spmv_crs_datapath.cache.overall_hits::total         3283                       # number of overall hits
system.spmv_crs_datapath.cache.ReadReq_misses::.spmv_crs_datapath.system.spmv_crs_datapath.cache          653                       # number of ReadReq misses
system.spmv_crs_datapath.cache.ReadReq_misses::total          653                       # number of ReadReq misses
system.spmv_crs_datapath.cache.WriteReq_misses::.spmv_crs_datapath.system.spmv_crs_datapath.cache            1                       # number of WriteReq misses
system.spmv_crs_datapath.cache.WriteReq_misses::total            1                       # number of WriteReq misses
system.spmv_crs_datapath.cache.demand_misses::.spmv_crs_datapath.system.spmv_crs_datapath.cache          654                       # number of demand (read+write) misses
system.spmv_crs_datapath.cache.demand_misses::total          654                       # number of demand (read+write) misses
system.spmv_crs_datapath.cache.overall_misses::.spmv_crs_datapath.system.spmv_crs_datapath.cache          654                       # number of overall misses
system.spmv_crs_datapath.cache.overall_misses::total          654                       # number of overall misses
system.spmv_crs_datapath.cache.ReadReq_miss_latency::.spmv_crs_datapath.system.spmv_crs_datapath.cache     52798000                       # number of ReadReq miss cycles
system.spmv_crs_datapath.cache.ReadReq_miss_latency::total     52798000                       # number of ReadReq miss cycles
system.spmv_crs_datapath.cache.WriteReq_miss_latency::.spmv_crs_datapath.system.spmv_crs_datapath.cache        86000                       # number of WriteReq miss cycles
system.spmv_crs_datapath.cache.WriteReq_miss_latency::total        86000                       # number of WriteReq miss cycles
system.spmv_crs_datapath.cache.demand_miss_latency::.spmv_crs_datapath.system.spmv_crs_datapath.cache     52884000                       # number of demand (read+write) miss cycles
system.spmv_crs_datapath.cache.demand_miss_latency::total     52884000                       # number of demand (read+write) miss cycles
system.spmv_crs_datapath.cache.overall_miss_latency::.spmv_crs_datapath.system.spmv_crs_datapath.cache     52884000                       # number of overall miss cycles
system.spmv_crs_datapath.cache.overall_miss_latency::total     52884000                       # number of overall miss cycles
system.spmv_crs_datapath.cache.ReadReq_accesses::.spmv_crs_datapath.system.spmv_crs_datapath.cache         3443                       # number of ReadReq accesses(hits+misses)
system.spmv_crs_datapath.cache.ReadReq_accesses::total         3443                       # number of ReadReq accesses(hits+misses)
system.spmv_crs_datapath.cache.WriteReq_accesses::.spmv_crs_datapath.system.spmv_crs_datapath.cache          494                       # number of WriteReq accesses(hits+misses)
system.spmv_crs_datapath.cache.WriteReq_accesses::total          494                       # number of WriteReq accesses(hits+misses)
system.spmv_crs_datapath.cache.demand_accesses::.spmv_crs_datapath.system.spmv_crs_datapath.cache         3937                       # number of demand (read+write) accesses
system.spmv_crs_datapath.cache.demand_accesses::total         3937                       # number of demand (read+write) accesses
system.spmv_crs_datapath.cache.overall_accesses::.spmv_crs_datapath.system.spmv_crs_datapath.cache         3937                       # number of overall (read+write) accesses
system.spmv_crs_datapath.cache.overall_accesses::total         3937                       # number of overall (read+write) accesses
system.spmv_crs_datapath.cache.ReadReq_miss_rate::.spmv_crs_datapath.system.spmv_crs_datapath.cache     0.189660                       # miss rate for ReadReq accesses
system.spmv_crs_datapath.cache.ReadReq_miss_rate::total     0.189660                       # miss rate for ReadReq accesses
system.spmv_crs_datapath.cache.WriteReq_miss_rate::.spmv_crs_datapath.system.spmv_crs_datapath.cache     0.002024                       # miss rate for WriteReq accesses
system.spmv_crs_datapath.cache.WriteReq_miss_rate::total     0.002024                       # miss rate for WriteReq accesses
system.spmv_crs_datapath.cache.demand_miss_rate::.spmv_crs_datapath.system.spmv_crs_datapath.cache     0.166116                       # miss rate for demand accesses
system.spmv_crs_datapath.cache.demand_miss_rate::total     0.166116                       # miss rate for demand accesses
system.spmv_crs_datapath.cache.overall_miss_rate::.spmv_crs_datapath.system.spmv_crs_datapath.cache     0.166116                       # miss rate for overall accesses
system.spmv_crs_datapath.cache.overall_miss_rate::total     0.166116                       # miss rate for overall accesses
system.spmv_crs_datapath.cache.ReadReq_avg_miss_latency::.spmv_crs_datapath.system.spmv_crs_datapath.cache 80854.517611                       # average ReadReq miss latency
system.spmv_crs_datapath.cache.ReadReq_avg_miss_latency::total 80854.517611                       # average ReadReq miss latency
system.spmv_crs_datapath.cache.WriteReq_avg_miss_latency::.spmv_crs_datapath.system.spmv_crs_datapath.cache        86000                       # average WriteReq miss latency
system.spmv_crs_datapath.cache.WriteReq_avg_miss_latency::total        86000                       # average WriteReq miss latency
system.spmv_crs_datapath.cache.demand_avg_miss_latency::.spmv_crs_datapath.system.spmv_crs_datapath.cache 80862.385321                       # average overall miss latency
system.spmv_crs_datapath.cache.demand_avg_miss_latency::total 80862.385321                       # average overall miss latency
system.spmv_crs_datapath.cache.overall_avg_miss_latency::.spmv_crs_datapath.system.spmv_crs_datapath.cache 80862.385321                       # average overall miss latency
system.spmv_crs_datapath.cache.overall_avg_miss_latency::total 80862.385321                       # average overall miss latency
system.spmv_crs_datapath.cache.blocked_cycles::no_mshrs            0                       # number of cycles access was blocked
system.spmv_crs_datapath.cache.blocked_cycles::no_targets            0                       # number of cycles access was blocked
system.spmv_crs_datapath.cache.blocked::no_mshrs            0                       # number of cycles access was blocked
system.spmv_crs_datapath.cache.blocked::no_targets            0                       # number of cycles access was blocked
system.spmv_crs_datapath.cache.avg_blocked_cycles::no_mshrs          nan                       # average number of cycles each access was blocked
system.spmv_crs_datapath.cache.avg_blocked_cycles::no_targets          nan                       # average number of cycles each access was blocked
system.spmv_crs_datapath.cache.writebacks::.writebacks           68                       # number of writebacks
system.spmv_crs_datapath.cache.writebacks::total           68                       # number of writebacks
system.spmv_crs_datapath.cache.ReadReq_mshr_misses::.spmv_crs_datapath.system.spmv_crs_datapath.cache          653                       # number of ReadReq MSHR misses
system.spmv_crs_datapath.cache.ReadReq_mshr_misses::total          653                       # number of ReadReq MSHR misses
system.spmv_crs_datapath.cache.WriteReq_mshr_misses::.spmv_crs_datapath.system.spmv_crs_datapath.cache            1                       # number of WriteReq MSHR misses
system.spmv_crs_datapath.cache.WriteReq_mshr_misses::total            1                       # number of WriteReq MSHR misses
system.spmv_crs_datapath.cache.HardPFReq_mshr_misses::.spmv_crs_datapath.cache.prefetcher          298                       # number of HardPFReq MSHR misses
system.spmv_crs_datapath.cache.HardPFReq_mshr_misses::total          298                       # number of HardPFReq MSHR misses
system.spmv_crs_datapath.cache.demand_mshr_misses::.spmv_crs_datapath.system.spmv_crs_datapath.cache          654                       # number of demand (read+write) MSHR misses
system.spmv_crs_datapath.cache.demand_mshr_misses::total          654                       # number of demand (read+write) MSHR misses
system.spmv_crs_datapath.cache.overall_mshr_misses::.spmv_crs_datapath.system.spmv_crs_datapath.cache          654                       # number of overall MSHR misses
system.spmv_crs_datapath.cache.overall_mshr_misses::.spmv_crs_datapath.cache.prefetcher          298                       # number of overall MSHR misses
system.spmv_crs_datapath.cache.overall_mshr_misses::total          952                       # number of overall MSHR misses
system.spmv_crs_datapath.cache.ReadReq_mshr_miss_latency::.spmv_crs_datapath.system.spmv_crs_datapath.cache     50832632                       # number of ReadReq MSHR miss cycles
system.spmv_crs_datapath.cache.ReadReq_mshr_miss_latency::total     50832632                       # number of ReadReq MSHR miss cycles
system.spmv_crs_datapath.cache.WriteReq_mshr_miss_latency::.spmv_crs_datapath.system.spmv_crs_datapath.cache        83200                       # number of WriteReq MSHR miss cycles
system.spmv_crs_datapath.cache.WriteReq_mshr_miss_latency::total        83200                       # number of WriteReq MSHR miss cycles
system.spmv_crs_datapath.cache.HardPFReq_mshr_miss_latency::.spmv_crs_datapath.cache.prefetcher     24408867                       # number of HardPFReq MSHR miss cycles
system.spmv_crs_datapath.cache.HardPFReq_mshr_miss_latency::total     24408867                       # number of HardPFReq MSHR miss cycles
system.spmv_crs_datapath.cache.demand_mshr_miss_latency::.spmv_crs_datapath.system.spmv_crs_datapath.cache     50915832                       # number of demand (read+write) MSHR miss cycles
system.spmv_crs_datapath.cache.demand_mshr_miss_latency::total     50915832                       # number of demand (read+write) MSHR miss cycles
system.spmv_crs_datapath.cache.overall_mshr_miss_latency::.spmv_crs_datapath.system.spmv_crs_datapath.cache     50915832                       # number of overall MSHR miss cycles
system.spmv_crs_datapath.cache.overall_mshr_miss_latency::.spmv_crs_datapath.cache.prefetcher     24408867                       # number of overall MSHR miss cycles
system.spmv_crs_datapath.cache.overall_mshr_miss_latency::total     75324699                       # number of overall MSHR miss cycles
system.spmv_crs_datapath.cache.ReadReq_mshr_miss_rate::.spmv_crs_datapath.system.spmv_crs_datapath.cache     0.189660                       # mshr miss rate for ReadReq accesses
system.spmv_crs_datapath.cache.ReadReq_mshr_miss_rate::total     0.189660                       # mshr miss rate for ReadReq accesses
system.spmv_crs_datapath.cache.WriteReq_mshr_miss_rate::.spmv_crs_datapath.system.spmv_crs_datapath.cache     0.002024                       # mshr miss rate for WriteReq accesses
system.spmv_crs_datapath.cache.WriteReq_mshr_miss_rate::total     0.002024                       # mshr miss rate for WriteReq accesses
system.spmv_crs_datapath.cache.HardPFReq_mshr_miss_rate::.spmv_crs_datapath.cache.prefetcher          inf                       # mshr miss rate for HardPFReq accesses
system.spmv_crs_datapath.cache.HardPFReq_mshr_miss_rate::total          inf                       # mshr miss rate for HardPFReq accesses
system.spmv_crs_datapath.cache.demand_mshr_miss_rate::.spmv_crs_datapath.system.spmv_crs_datapath.cache     0.166116                       # mshr miss rate for demand accesses
system.spmv_crs_datapath.cache.demand_mshr_miss_rate::total     0.166116                       # mshr miss rate for demand accesses
system.spmv_crs_datapath.cache.overall_mshr_miss_rate::.spmv_crs_datapath.system.spmv_crs_datapath.cache     0.166116                       # mshr miss rate for overall accesses
system.spmv_crs_datapath.cache.overall_mshr_miss_rate::.spmv_crs_datapath.cache.prefetcher          inf                       # mshr miss rate for overall accesses
system.spmv_crs_datapath.cache.overall_mshr_miss_rate::total     0.241808                       # mshr miss rate for overall accesses
system.spmv_crs_datapath.cache.ReadReq_avg_mshr_miss_latency::.spmv_crs_datapath.system.spmv_crs_datapath.cache 77844.765697                       # average ReadReq mshr miss latency
system.spmv_crs_datapath.cache.ReadReq_avg_mshr_miss_latency::total 77844.765697                       # average ReadReq mshr miss latency
system.spmv_crs_datapath.cache.WriteReq_avg_mshr_miss_latency::.spmv_crs_datapath.system.spmv_crs_datapath.cache        83200                       # average WriteReq mshr miss latency
system.spmv_crs_datapath.cache.WriteReq_avg_mshr_miss_latency::total        83200                       # average WriteReq mshr miss latency
system.spmv_crs_datapath.cache.HardPFReq_avg_mshr_miss_latency::.spmv_crs_datapath.cache.prefetcher 81908.949664                       # average HardPFReq mshr miss latency
system.spmv_crs_datapath.cache.HardPFReq_avg_mshr_miss_latency::total 81908.949664                       # average HardPFReq mshr miss latency
system.spmv_crs_datapath.cache.demand_avg_mshr_miss_latency::.spmv_crs_datapath.system.spmv_crs_datapath.cache 77852.954128                       # average overall mshr miss latency
system.spmv_crs_datapath.cache.demand_avg_mshr_miss_latency::total 77852.954128                       # average overall mshr miss latency
system.spmv_crs_datapath.cache.overall_avg_mshr_miss_latency::.spmv_crs_datapath.system.spmv_crs_datapath.cache 77852.954128                       # average overall mshr miss latency
system.spmv_crs_datapath.cache.overall_avg_mshr_miss_latency::.spmv_crs_datapath.cache.prefetcher 81908.949664                       # average overall mshr miss latency
system.spmv_crs_datapath.cache.overall_avg_mshr_miss_latency::total 79122.582983                       # average overall mshr miss latency
system.spmv_crs_datapath.cache.replacements          440                       # number of replacements

---------- End Simulation Statistics   ----------
