gem5 Simulator System.  http://gem5.org
gem5 is copyrighted software; use the --copyright option for details.

gem5 compiled Jun  2 2019 14:47:48
gem5 started Jun 11 2019 01:19:19
gem5 executing on 5e24d8f23dc5, pid 18553
command line: /workspace/gem5-aladdin/build/X86/gem5.opt --stats-db-file=stats.db --outdir=/workspace/gem5-aladdin/sweeps/machsuite/spmv_crs/0/outputs /workspace/gem5-aladdin/configs/aladdin/aladdin_se.py --num-cpus=0 --mem-size=4GB --enable-stats-dump --enable_prefetchers --prefetcher-type=stride --mem-type=DDR3_1600_8x8 --sys-clock=499MHz --cpu-type=DerivO3CPU --caches --cacheline_size=32 --accel_cfg_file=/workspace/gem5-aladdin/sweeps/machsuite/spmv_crs/0/gem5.cfg -c spmv-crs-gem5-accel -o ''

Global frequency set at 1000000000000 ticks per second
-------------------------------
      Setting ScratchPad       
-------------------------------
-------------------------------
      Generating DDDG          
-------------------------------
-------------------------------
Num of Nodes: 32402
Num of Edges: 69798
Num of Reg Edges: 37397
Num of MEM Edges: 0
Num of Control Edges: 32401
-------------------------------
-------------------------------
    Initializing BaseDatapath      
-------------------------------
 Top level: spmv
=============================================
      Optimizing...            /workspace/gem5-aladdin/sweeps/machsuite/spmv_crs/0/outputs/spmv_crs
=============================================
-------------------------------
  Remove PHI and Convert Nodes 
-------------------------------
  Removing 27769 edges.
  Adding 19620 new edges.
  Removing 494 isolated nodes.
-------------------------------
  Remove Induction Dependence  
-------------------------------
-------------------------------
       Init Base Address       
-------------------------------
-------------------------------
     Init DMA Base Address     
-------------------------------
-------------------------------
        Mem to Reg Conv        
-------------------------------
-------------------------------
      ScratchPad Partition     
-------------------------------
-------------------------------
         Loop Flatten          
-------------------------------
  Removing 2654 isolated nodes.
  Removing 0 isolated nodes.
-------------------------------
         Loop Unrolling        
-------------------------------
  Adding 49002 new edges.
  Removing 0 isolated nodes.
  Removing 0 isolated nodes.
-------------------------------
          Load Buffer          
-------------------------------
  Adding 0 new edges.
  Removing 0 edges.
  Removing 0 isolated nodes.
-------------------------------
          Store Buffer         
-------------------------------
  Adding 0 new edges.
  Removing 0 isolated nodes.
  Removing 0 isolated nodes.
-------------------------------
    Remove Repeated Stores     
-------------------------------
-------------------------------
      Memory Ambiguation       
-------------------------------
  Adding 0 new edges.
-------------------------------
     Tree Height Reduction     
-------------------------------
  Removing 1364 edges.
  Adding 1364 new edges.
  Removing 0 isolated nodes.
-------------------------------
  Fuse register loads/stores   
-------------------------------
  Removing 0 edges.
  Adding 0 new edges.
  Removing 0 isolated nodes.
-------------------------------
   Fuse consecutive branches   
-------------------------------
  Removing 2654 edges.
  Adding 2654 new edges.
  Removing 0 isolated nodes.
-------------------------------
      Per Loop Pipelining      
-------------------------------
-------------------------------
         Loop Pipelining        
-------------------------------
=============================================
      Scheduling...            /workspace/gem5-aladdin/sweeps/machsuite/spmv_crs/0/outputs/spmv_crs
=============================================
  Total connected nodes: 24750
  Total edges: 97692
=============================================
**** REAL SIMULATION ****
===============================
        Aladdin Results        
===============================
Running : /workspace/gem5-aladdin/sweeps/machsuite/spmv_crs/0/outputs/spmv_crs
Top level function: spmv
Cycle : 57991 cycles
Avg Power: 6.43221 mW
Idle FU Cycles: 49242 cycles
Avg FU Power: 4.11002 mW
Avg FU Dynamic Power: 2.31266 mW
Avg FU leakage Power: 1.79737 mW
Avg MEM Power: 2.32218 mW
Avg MEM Dynamic Power: 1.02942 mW
Avg MEM Leakage Power: 1.29277 mW
Total Area: 476226 uM^2
FU Area: 173784 uM^2
MEM Area: 302442 uM^2
Num of Double Precision FP Multipliers: 8
Num of Double Precision FP Adders: 4
Num of Registers (32-bit): 25
===============================
        Aladdin Results        
===============================
-------------------------------
      Generating DDDG          
-------------------------------
-------------------------------
Reached end of trace.
-------------------------------
Exiting @ tick 115982000 because Aladdin called exit()
