gem5 Simulator System.  http://gem5.org
gem5 is copyrighted software; use the --copyright option for details.

gem5 compiled Jun  2 2019 14:47:48
gem5 started Jun 11 2019 01:16:37
gem5 executing on 5e24d8f23dc5, pid 18475
command line: /workspace/gem5-aladdin/build/X86/gem5.opt --stats-db-file=stats.db --outdir=/workspace/gem5-aladdin/sweeps/machsuite/nw_nw/0/outputs /workspace/gem5-aladdin/configs/aladdin/aladdin_se.py --num-cpus=0 --mem-size=4GB --enable-stats-dump --enable_prefetchers --prefetcher-type=stride --mem-type=DDR3_1600_8x8 --sys-clock=499MHz --cpu-type=DerivO3CPU --caches --cacheline_size=32 --accel_cfg_file=/workspace/gem5-aladdin/sweeps/machsuite/nw_nw/0/gem5.cfg -c nw-nw-gem5-accel -o ''

Global frequency set at 1000000000000 ticks per second
-------------------------------
      Setting ScratchPad       
-------------------------------
-------------------------------
      Generating DDDG          
-------------------------------
-------------------------------
Num of Nodes: 586884
Num of Edges: 1445582
Num of Reg Edges: 809396
Num of MEM Edges: 49303
Num of Control Edges: 586883
-------------------------------
-------------------------------
    Initializing BaseDatapath      
-------------------------------
 Top level: needwun
=============================================
      Optimizing...            /workspace/gem5-aladdin/sweeps/machsuite/nw_nw/0/outputs/nw_nw
=============================================
-------------------------------
  Remove PHI and Convert Nodes 
-------------------------------
  Removing 110269 edges.
  Adding 91014 new edges.
  Removing 1416 isolated nodes.
-------------------------------
  Remove Induction Dependence  
-------------------------------
-------------------------------
       Init Base Address       
-------------------------------
-------------------------------
     Init DMA Base Address     
-------------------------------
-------------------------------
        Mem to Reg Conv        
-------------------------------
-------------------------------
      ScratchPad Partition     
-------------------------------
-------------------------------
         Loop Flatten          
-------------------------------
  Removing 16512 isolated nodes.
  Removing 0 isolated nodes.
-------------------------------
         Loop Unrolling        
-------------------------------
  Adding 1132883 new edges.
  Removing 0 isolated nodes.
  Removing 0 isolated nodes.
-------------------------------
          Load Buffer          
-------------------------------
  Adding 32512 new edges.
  Removing 178816 edges.
  Removing 0 isolated nodes.
-------------------------------
          Store Buffer         
-------------------------------
  Adding 48768 new edges.
  Removing 16256 isolated nodes.
  Removing 0 isolated nodes.
-------------------------------
    Remove Repeated Stores     
-------------------------------
-------------------------------
      Memory Ambiguation       
-------------------------------
  Adding 0 new edges.
-------------------------------
     Tree Height Reduction     
-------------------------------
  Removing 0 edges.
  Adding 0 new edges.
  Removing 0 isolated nodes.
-------------------------------
  Fuse register loads/stores   
-------------------------------
  Removing 0 edges.
  Adding 0 new edges.
  Removing 0 isolated nodes.
-------------------------------
   Fuse consecutive branches   
-------------------------------
  Removing 16512 edges.
  Adding 16512 new edges.
  Removing 0 isolated nodes.
-------------------------------
      Per Loop Pipelining      
-------------------------------
-------------------------------
         Loop Pipelining        
-------------------------------
=============================================
      Scheduling...            /workspace/gem5-aladdin/sweeps/machsuite/nw_nw/0/outputs/nw_nw
=============================================
  Total connected nodes: 518050
  Total edges: 2276554
=============================================
**** REAL SIMULATION ****
===============================
        Aladdin Results        
===============================
Running : /workspace/gem5-aladdin/sweeps/machsuite/nw_nw/0/outputs/nw_nw
Top level function: needwun
Cycle : 55268 cycles
Avg Power: 15.7277 mW
Idle FU Cycles: 51246 cycles
Avg FU Power: 2.06574 mW
Avg FU Dynamic Power: 0.60792 mW
Avg FU leakage Power: 1.45782 mW
Avg MEM Power: 13.6619 mW
Avg MEM Dynamic Power: 12.3692 mW
Avg MEM Leakage Power: 1.29277 mW
Total Area: 415538 uM^2
FU Area: 113096 uM^2
MEM Area: 302442 uM^2
Num of Adders (32-bit): 384
Num of Bit-wise Operators (32-bit): 1
Num of Shifters (32-bit): 2
Num of Registers (32-bit): 228
===============================
        Aladdin Results        
===============================
-------------------------------
      Generating DDDG          
-------------------------------
-------------------------------
Reached end of trace.
-------------------------------
Exiting @ tick 110536000 because Aladdin called exit()
