
---------- Begin Simulation Statistics ----------
sim_seconds                                  0.054250                       # Number of seconds simulated
sim_ticks                                 54249532000                       # Number of ticks simulated
final_tick                                54249532000                       # Number of ticks from beginning of simulation (restored from checkpoints and never reset)
sim_freq                                 1000000000000                       # Frequency of simulated ticks
host_tick_rate                              619288399                       # Simulator tick rate (ticks/s)
host_mem_usage                               15670340                       # Number of bytes of host memory used
host_seconds                                    87.60                       # Real time elapsed on the host
system.voltage_domain.voltage                       1                       # Voltage in Volts
system.clk_domain.clock                          2004                       # Clock period in ticks
system.mem_ctrls.pwrStateResidencyTicks::UNDEFINED  54249532000                       # Cumulative time (in ticks) in various power states
system.mem_ctrls.bytes_read::.viterbi_viterbi_datapath.system.viterbi_viterbi_datapath.cache      3161664                       # Number of bytes read from this memory
system.mem_ctrls.bytes_read::.viterbi_viterbi_datapath.cache.prefetcher     16823840                       # Number of bytes read from this memory
system.mem_ctrls.bytes_read::total           19985504                       # Number of bytes read from this memory
system.mem_ctrls.bytes_written::.writebacks       285216                       # Number of bytes written to this memory
system.mem_ctrls.bytes_written::total          285216                       # Number of bytes written to this memory
system.mem_ctrls.num_reads::.viterbi_viterbi_datapath.system.viterbi_viterbi_datapath.cache        98802                       # Number of read requests responded to by this memory
system.mem_ctrls.num_reads::.viterbi_viterbi_datapath.cache.prefetcher       525745                       # Number of read requests responded to by this memory
system.mem_ctrls.num_reads::total              624547                       # Number of read requests responded to by this memory
system.mem_ctrls.num_writes::.writebacks         8913                       # Number of write requests responded to by this memory
system.mem_ctrls.num_writes::total               8913                       # Number of write requests responded to by this memory
system.mem_ctrls.bw_read::.viterbi_viterbi_datapath.system.viterbi_viterbi_datapath.cache     58280024                       # Total read bandwidth from this memory (bytes/s)
system.mem_ctrls.bw_read::.viterbi_viterbi_datapath.cache.prefetcher    310119542                       # Total read bandwidth from this memory (bytes/s)
system.mem_ctrls.bw_read::total             368399565                       # Total read bandwidth from this memory (bytes/s)
system.mem_ctrls.bw_write::.writebacks        5257483                       # Write bandwidth from this memory (bytes/s)
system.mem_ctrls.bw_write::total              5257483                       # Write bandwidth from this memory (bytes/s)
system.mem_ctrls.bw_total::.writebacks        5257483                       # Total bandwidth to/from this memory (bytes/s)
system.mem_ctrls.bw_total::.viterbi_viterbi_datapath.system.viterbi_viterbi_datapath.cache     58280024                       # Total bandwidth to/from this memory (bytes/s)
system.mem_ctrls.bw_total::.viterbi_viterbi_datapath.cache.prefetcher    310119542                       # Total bandwidth to/from this memory (bytes/s)
system.mem_ctrls.bw_total::total            373657048                       # Total bandwidth to/from this memory (bytes/s)
system.mem_ctrls.avgPriority_.writebacks::samples      1169.00                       # Average QoS priority value for accepted requests
system.mem_ctrls.avgPriority_.viterbi_viterbi_datapath.system.viterbi_viterbi_datapath.cache::samples     96761.00                       # Average QoS priority value for accepted requests
system.mem_ctrls.avgPriority_.viterbi_viterbi_datapath.cache.prefetcher::samples    517245.00                       # Average QoS priority value for accepted requests
system.mem_ctrls.priorityMinLatency      0.000000018750                       # per QoS priority minimum request to response latency (s)
system.mem_ctrls.priorityMaxLatency      0.007576247250                       # per QoS priority maximum request to response latency (s)
system.mem_ctrls.numReadWriteTurnArounds           64                       # Number of turnarounds from READ to WRITE
system.mem_ctrls.numWriteReadTurnArounds           64                       # Number of turnarounds from WRITE to READ
system.mem_ctrls.numStayReadState             1114477                       # Number of times bus staying in READ state
system.mem_ctrls.numStayWriteState               1089                       # Number of times bus staying in WRITE state
system.mem_ctrls.readReqs                      624547                       # Number of read requests accepted
system.mem_ctrls.writeReqs                       8913                       # Number of write requests accepted
system.mem_ctrls.readBursts                    624547                       # Number of DRAM read bursts, including those serviced by the write queue
system.mem_ctrls.writeBursts                     8913                       # Number of DRAM write bursts, including those merged in the write queue
system.mem_ctrls.bytesReadDRAM               39296384                       # Total number of bytes read from DRAM
system.mem_ctrls.bytesReadWrQ                  674624                       # Total number of bytes read from write queue
system.mem_ctrls.bytesWritten                   73728                       # Total number of bytes written to DRAM
system.mem_ctrls.bytesReadSys                19985504                       # Total read bytes from the system interface side
system.mem_ctrls.bytesWrittenSys               285216                       # Total written bytes from the system interface side
system.mem_ctrls.servicedByWrQ                  10541                       # Number of DRAM read bursts serviced by the write queue
system.mem_ctrls.mergedWrBursts                  7744                       # Number of DRAM write bursts merged with an existing one
system.mem_ctrls.neitherReadNorWriteReqs            0                       # Number of requests that are neither read nor write
system.mem_ctrls.perBankRdBursts::0            145124                       # Per bank write bursts
system.mem_ctrls.perBankRdBursts::1            145128                       # Per bank write bursts
system.mem_ctrls.perBankRdBursts::2              5034                       # Per bank write bursts
system.mem_ctrls.perBankRdBursts::3              4872                       # Per bank write bursts
system.mem_ctrls.perBankRdBursts::4              4974                       # Per bank write bursts
system.mem_ctrls.perBankRdBursts::5              5094                       # Per bank write bursts
system.mem_ctrls.perBankRdBursts::6              2289                       # Per bank write bursts
system.mem_ctrls.perBankRdBursts::7               147                       # Per bank write bursts
system.mem_ctrls.perBankRdBursts::8                 0                       # Per bank write bursts
system.mem_ctrls.perBankRdBursts::9                 0                       # Per bank write bursts
system.mem_ctrls.perBankRdBursts::10                0                       # Per bank write bursts
system.mem_ctrls.perBankRdBursts::11                0                       # Per bank write bursts
system.mem_ctrls.perBankRdBursts::12                0                       # Per bank write bursts
system.mem_ctrls.perBankRdBursts::13            11890                       # Per bank write bursts
system.mem_ctrls.perBankRdBursts::14           144322                       # Per bank write bursts
system.mem_ctrls.perBankRdBursts::15           145132                       # Per bank write bursts
system.mem_ctrls.perBankWrBursts::0               136                       # Per bank write bursts
system.mem_ctrls.perBankWrBursts::1               133                       # Per bank write bursts
system.mem_ctrls.perBankWrBursts::2               141                       # Per bank write bursts
system.mem_ctrls.perBankWrBursts::3               129                       # Per bank write bursts
system.mem_ctrls.perBankWrBursts::4               138                       # Per bank write bursts
system.mem_ctrls.perBankWrBursts::5               133                       # Per bank write bursts
system.mem_ctrls.perBankWrBursts::6               124                       # Per bank write bursts
system.mem_ctrls.perBankWrBursts::7                 2                       # Per bank write bursts
system.mem_ctrls.perBankWrBursts::8                 0                       # Per bank write bursts
system.mem_ctrls.perBankWrBursts::9                 0                       # Per bank write bursts
system.mem_ctrls.perBankWrBursts::10                0                       # Per bank write bursts
system.mem_ctrls.perBankWrBursts::11                0                       # Per bank write bursts
system.mem_ctrls.perBankWrBursts::12                0                       # Per bank write bursts
system.mem_ctrls.perBankWrBursts::13                0                       # Per bank write bursts
system.mem_ctrls.perBankWrBursts::14               82                       # Per bank write bursts
system.mem_ctrls.perBankWrBursts::15              134                       # Per bank write bursts
system.mem_ctrls.numRdRetry                         0                       # Number of times read queue was full causing retry
system.mem_ctrls.numWrRetry                         0                       # Number of times write queue was full causing retry
system.mem_ctrls.totGap                   54249308000                       # Total gap between requests
system.mem_ctrls.readPktSize::0                     0                       # Read request sizes (log2)
system.mem_ctrls.readPktSize::1                     0                       # Read request sizes (log2)
system.mem_ctrls.readPktSize::2                     0                       # Read request sizes (log2)
system.mem_ctrls.readPktSize::3                     0                       # Read request sizes (log2)
system.mem_ctrls.readPktSize::4                     0                       # Read request sizes (log2)
system.mem_ctrls.readPktSize::5                624547                       # Read request sizes (log2)
system.mem_ctrls.readPktSize::6                     0                       # Read request sizes (log2)
system.mem_ctrls.writePktSize::0                    0                       # Write request sizes (log2)
system.mem_ctrls.writePktSize::1                    0                       # Write request sizes (log2)
system.mem_ctrls.writePktSize::2                    0                       # Write request sizes (log2)
system.mem_ctrls.writePktSize::3                    0                       # Write request sizes (log2)
system.mem_ctrls.writePktSize::4                    0                       # Write request sizes (log2)
system.mem_ctrls.writePktSize::5                 8913                       # Write request sizes (log2)
system.mem_ctrls.writePktSize::6                    0                       # Write request sizes (log2)
system.mem_ctrls.rdQLenPdf::0                  100938                       # What read queue length does an incoming req see
system.mem_ctrls.rdQLenPdf::1                   75463                       # What read queue length does an incoming req see
system.mem_ctrls.rdQLenPdf::2                   73626                       # What read queue length does an incoming req see
system.mem_ctrls.rdQLenPdf::3                   73404                       # What read queue length does an incoming req see
system.mem_ctrls.rdQLenPdf::4                   73254                       # What read queue length does an incoming req see
system.mem_ctrls.rdQLenPdf::5                   73354                       # What read queue length does an incoming req see
system.mem_ctrls.rdQLenPdf::6                   73903                       # What read queue length does an incoming req see
system.mem_ctrls.rdQLenPdf::7                   67260                       # What read queue length does an incoming req see
system.mem_ctrls.rdQLenPdf::8                    1376                       # What read queue length does an incoming req see
system.mem_ctrls.rdQLenPdf::9                     365                       # What read queue length does an incoming req see
system.mem_ctrls.rdQLenPdf::10                    629                       # What read queue length does an incoming req see
system.mem_ctrls.rdQLenPdf::11                    155                       # What read queue length does an incoming req see
system.mem_ctrls.rdQLenPdf::12                    145                       # What read queue length does an incoming req see
system.mem_ctrls.rdQLenPdf::13                    113                       # What read queue length does an incoming req see
system.mem_ctrls.rdQLenPdf::14                     11                       # What read queue length does an incoming req see
system.mem_ctrls.rdQLenPdf::15                     10                       # What read queue length does an incoming req see
system.mem_ctrls.rdQLenPdf::16                      0                       # What read queue length does an incoming req see
system.mem_ctrls.rdQLenPdf::17                      0                       # What read queue length does an incoming req see
system.mem_ctrls.rdQLenPdf::18                      0                       # What read queue length does an incoming req see
system.mem_ctrls.rdQLenPdf::19                      0                       # What read queue length does an incoming req see
system.mem_ctrls.rdQLenPdf::20                      0                       # What read queue length does an incoming req see
system.mem_ctrls.rdQLenPdf::21                      0                       # What read queue length does an incoming req see
system.mem_ctrls.rdQLenPdf::22                      0                       # What read queue length does an incoming req see
system.mem_ctrls.rdQLenPdf::23                      0                       # What read queue length does an incoming req see
system.mem_ctrls.rdQLenPdf::24                      0                       # What read queue length does an incoming req see
system.mem_ctrls.rdQLenPdf::25                      0                       # What read queue length does an incoming req see
system.mem_ctrls.rdQLenPdf::26                      0                       # What read queue length does an incoming req see
system.mem_ctrls.rdQLenPdf::27                      0                       # What read queue length does an incoming req see
system.mem_ctrls.rdQLenPdf::28                      0                       # What read queue length does an incoming req see
system.mem_ctrls.rdQLenPdf::29                      0                       # What read queue length does an incoming req see
system.mem_ctrls.rdQLenPdf::30                      0                       # What read queue length does an incoming req see
system.mem_ctrls.rdQLenPdf::31                      0                       # What read queue length does an incoming req see
system.mem_ctrls.wrQLenPdf::0                       1                       # What write queue length does an incoming req see
system.mem_ctrls.wrQLenPdf::1                       1                       # What write queue length does an incoming req see
system.mem_ctrls.wrQLenPdf::2                       1                       # What write queue length does an incoming req see
system.mem_ctrls.wrQLenPdf::3                       1                       # What write queue length does an incoming req see
system.mem_ctrls.wrQLenPdf::4                       1                       # What write queue length does an incoming req see
system.mem_ctrls.wrQLenPdf::5                       1                       # What write queue length does an incoming req see
system.mem_ctrls.wrQLenPdf::6                       1                       # What write queue length does an incoming req see
system.mem_ctrls.wrQLenPdf::7                       1                       # What write queue length does an incoming req see
system.mem_ctrls.wrQLenPdf::8                       1                       # What write queue length does an incoming req see
system.mem_ctrls.wrQLenPdf::9                       1                       # What write queue length does an incoming req see
system.mem_ctrls.wrQLenPdf::10                      1                       # What write queue length does an incoming req see
system.mem_ctrls.wrQLenPdf::11                      1                       # What write queue length does an incoming req see
system.mem_ctrls.wrQLenPdf::12                      1                       # What write queue length does an incoming req see
system.mem_ctrls.wrQLenPdf::13                      1                       # What write queue length does an incoming req see
system.mem_ctrls.wrQLenPdf::14                      1                       # What write queue length does an incoming req see
system.mem_ctrls.wrQLenPdf::15                     65                       # What write queue length does an incoming req see
system.mem_ctrls.wrQLenPdf::16                     65                       # What write queue length does an incoming req see
system.mem_ctrls.wrQLenPdf::17                     64                       # What write queue length does an incoming req see
system.mem_ctrls.wrQLenPdf::18                     64                       # What write queue length does an incoming req see
system.mem_ctrls.wrQLenPdf::19                     64                       # What write queue length does an incoming req see
system.mem_ctrls.wrQLenPdf::20                     64                       # What write queue length does an incoming req see
system.mem_ctrls.wrQLenPdf::21                     64                       # What write queue length does an incoming req see
system.mem_ctrls.wrQLenPdf::22                     64                       # What write queue length does an incoming req see
system.mem_ctrls.wrQLenPdf::23                     64                       # What write queue length does an incoming req see
system.mem_ctrls.wrQLenPdf::24                     64                       # What write queue length does an incoming req see
system.mem_ctrls.wrQLenPdf::25                     64                       # What write queue length does an incoming req see
system.mem_ctrls.wrQLenPdf::26                     64                       # What write queue length does an incoming req see
system.mem_ctrls.wrQLenPdf::27                     64                       # What write queue length does an incoming req see
system.mem_ctrls.wrQLenPdf::28                     64                       # What write queue length does an incoming req see
system.mem_ctrls.wrQLenPdf::29                     64                       # What write queue length does an incoming req see
system.mem_ctrls.wrQLenPdf::30                     64                       # What write queue length does an incoming req see
system.mem_ctrls.wrQLenPdf::31                     64                       # What write queue length does an incoming req see
system.mem_ctrls.wrQLenPdf::32                     64                       # What write queue length does an incoming req see
system.mem_ctrls.wrQLenPdf::33                      0                       # What write queue length does an incoming req see
system.mem_ctrls.wrQLenPdf::34                      0                       # What write queue length does an incoming req see
system.mem_ctrls.wrQLenPdf::35                      0                       # What write queue length does an incoming req see
system.mem_ctrls.wrQLenPdf::36                      0                       # What write queue length does an incoming req see
system.mem_ctrls.wrQLenPdf::37                      0                       # What write queue length does an incoming req see
system.mem_ctrls.wrQLenPdf::38                      0                       # What write queue length does an incoming req see
system.mem_ctrls.wrQLenPdf::39                      0                       # What write queue length does an incoming req see
system.mem_ctrls.wrQLenPdf::40                      0                       # What write queue length does an incoming req see
system.mem_ctrls.wrQLenPdf::41                      0                       # What write queue length does an incoming req see
system.mem_ctrls.wrQLenPdf::42                      0                       # What write queue length does an incoming req see
system.mem_ctrls.wrQLenPdf::43                      0                       # What write queue length does an incoming req see
system.mem_ctrls.wrQLenPdf::44                      0                       # What write queue length does an incoming req see
system.mem_ctrls.wrQLenPdf::45                      0                       # What write queue length does an incoming req see
system.mem_ctrls.wrQLenPdf::46                      0                       # What write queue length does an incoming req see
system.mem_ctrls.wrQLenPdf::47                      0                       # What write queue length does an incoming req see
system.mem_ctrls.wrQLenPdf::48                      0                       # What write queue length does an incoming req see
system.mem_ctrls.wrQLenPdf::49                      0                       # What write queue length does an incoming req see
system.mem_ctrls.wrQLenPdf::50                      0                       # What write queue length does an incoming req see
system.mem_ctrls.wrQLenPdf::51                      0                       # What write queue length does an incoming req see
system.mem_ctrls.wrQLenPdf::52                      0                       # What write queue length does an incoming req see
system.mem_ctrls.wrQLenPdf::53                      0                       # What write queue length does an incoming req see
system.mem_ctrls.wrQLenPdf::54                      0                       # What write queue length does an incoming req see
system.mem_ctrls.wrQLenPdf::55                      0                       # What write queue length does an incoming req see
system.mem_ctrls.wrQLenPdf::56                      0                       # What write queue length does an incoming req see
system.mem_ctrls.wrQLenPdf::57                      0                       # What write queue length does an incoming req see
system.mem_ctrls.wrQLenPdf::58                      0                       # What write queue length does an incoming req see
system.mem_ctrls.wrQLenPdf::59                      0                       # What write queue length does an incoming req see
system.mem_ctrls.wrQLenPdf::60                      0                       # What write queue length does an incoming req see
system.mem_ctrls.wrQLenPdf::61                      0                       # What write queue length does an incoming req see
system.mem_ctrls.wrQLenPdf::62                      0                       # What write queue length does an incoming req see
system.mem_ctrls.wrQLenPdf::63                      0                       # What write queue length does an incoming req see
system.mem_ctrls.bytesPerActivate::samples        54611                       # Bytes accessed per row activation
system.mem_ctrls.bytesPerActivate::mean    720.892128                       # Bytes accessed per row activation
system.mem_ctrls.bytesPerActivate::gmean   524.113029                       # Bytes accessed per row activation
system.mem_ctrls.bytesPerActivate::stdev   389.749265                       # Bytes accessed per row activation
system.mem_ctrls.bytesPerActivate::0-127         6193     11.34%     11.34% # Bytes accessed per row activation
system.mem_ctrls.bytesPerActivate::128-255         5787     10.60%     21.94% # Bytes accessed per row activation
system.mem_ctrls.bytesPerActivate::256-383         1735      3.18%     25.11% # Bytes accessed per row activation
system.mem_ctrls.bytesPerActivate::384-511          382      0.70%     25.81% # Bytes accessed per row activation
system.mem_ctrls.bytesPerActivate::512-639         7595     13.91%     39.72% # Bytes accessed per row activation
system.mem_ctrls.bytesPerActivate::640-767          211      0.39%     40.11% # Bytes accessed per row activation
system.mem_ctrls.bytesPerActivate::768-895           45      0.08%     40.19% # Bytes accessed per row activation
system.mem_ctrls.bytesPerActivate::896-1023          271      0.50%     40.69% # Bytes accessed per row activation
system.mem_ctrls.bytesPerActivate::1024-1151        32392     59.31%    100.00% # Bytes accessed per row activation
system.mem_ctrls.bytesPerActivate::total        54611                       # Bytes accessed per row activation
system.mem_ctrls.rdPerTurnAround::samples           64                       # Reads before turning the bus around for writes
system.mem_ctrls.rdPerTurnAround::mean    9510.500000                       # Reads before turning the bus around for writes
system.mem_ctrls.rdPerTurnAround::gmean   9425.889135                       # Reads before turning the bus around for writes
system.mem_ctrls.rdPerTurnAround::stdev   1163.511243                       # Reads before turning the bus around for writes
system.mem_ctrls.rdPerTurnAround::5120-5631            2      3.12%      3.12% # Reads before turning the bus around for writes
system.mem_ctrls.rdPerTurnAround::5632-6143            1      1.56%      4.69% # Reads before turning the bus around for writes
system.mem_ctrls.rdPerTurnAround::6656-7167            2      3.12%      7.81% # Reads before turning the bus around for writes
system.mem_ctrls.rdPerTurnAround::7168-7679            1      1.56%      9.38% # Reads before turning the bus around for writes
system.mem_ctrls.rdPerTurnAround::8192-8703            2      3.12%     12.50% # Reads before turning the bus around for writes
system.mem_ctrls.rdPerTurnAround::8704-9215            2      3.12%     15.62% # Reads before turning the bus around for writes
system.mem_ctrls.rdPerTurnAround::9216-9727            1      1.56%     17.19% # Reads before turning the bus around for writes
system.mem_ctrls.rdPerTurnAround::9728-10239           52     81.25%     98.44% # Reads before turning the bus around for writes
system.mem_ctrls.rdPerTurnAround::12800-13311            1      1.56%    100.00% # Reads before turning the bus around for writes
system.mem_ctrls.rdPerTurnAround::total            64                       # Reads before turning the bus around for writes
system.mem_ctrls.wrPerTurnAround::samples           64                       # Writes before turning the bus around for reads
system.mem_ctrls.wrPerTurnAround::mean             18                       # Writes before turning the bus around for reads
system.mem_ctrls.wrPerTurnAround::gmean     18.000000                       # Writes before turning the bus around for reads
system.mem_ctrls.wrPerTurnAround::18               64    100.00%    100.00% # Writes before turning the bus around for reads
system.mem_ctrls.wrPerTurnAround::total            64                       # Writes before turning the bus around for reads
system.mem_ctrls.masterReadBytes::.viterbi_viterbi_datapath.system.viterbi_viterbi_datapath.cache      3096352                       # Per-master bytes read from memory
system.mem_ctrls.masterReadBytes::.viterbi_viterbi_datapath.cache.prefetcher     16551840                       # Per-master bytes read from memory
system.mem_ctrls.masterWriteBytes::.writebacks        36864                       # Per-master bytes write to memory
system.mem_ctrls.masterReadRate::.viterbi_viterbi_datapath.system.viterbi_viterbi_datapath.cache 57076105.283267691731                       # Per-master bytes read from memory rate (Bytes/sec)
system.mem_ctrls.masterReadRate::.viterbi_viterbi_datapath.cache.prefetcher 305105673.538344979286                       # Per-master bytes read from memory rate (Bytes/sec)
system.mem_ctrls.masterWriteRate::.writebacks 679526.599418406026                       # Per-master bytes write to memory rate (Bytes/sec)
system.mem_ctrls.masterReadAccesses::.viterbi_viterbi_datapath.system.viterbi_viterbi_datapath.cache        98802                       # Per-master read serviced memory accesses
system.mem_ctrls.masterReadAccesses::.viterbi_viterbi_datapath.cache.prefetcher       525745                       # Per-master read serviced memory accesses
system.mem_ctrls.masterWriteAccesses::.writebacks         8913                       # Per-master write serviced memory accesses
system.mem_ctrls.masterReadTotalLat::.viterbi_viterbi_datapath.system.viterbi_viterbi_datapath.cache   4284893059                       # Per-master read total memory access latency
system.mem_ctrls.masterReadTotalLat::.viterbi_viterbi_datapath.cache.prefetcher  27692332158                       # Per-master read total memory access latency
system.mem_ctrls.masterWriteTotalLat::.writebacks 1269424864500                       # Per-master write total memory access latency
system.mem_ctrls.masterReadAvgLat::.viterbi_viterbi_datapath.system.viterbi_viterbi_datapath.cache     43368.49                       # Per-master read average memory access latency
system.mem_ctrls.masterReadAvgLat::.viterbi_viterbi_datapath.cache.prefetcher     52672.55                       # Per-master read average memory access latency
system.mem_ctrls.masterWriteAvgLat::.writebacks 142423972.23                       # Per-master write average memory access latency
system.mem_ctrls.totQLat                  20464612717                       # Total ticks spent queuing
system.mem_ctrls.totMemAccLat             31977225217                       # Total ticks spent from burst creation until serviced by the DRAM
system.mem_ctrls.totBusLat                 3070030000                       # Total ticks spent in databus transfers
system.mem_ctrls.avgQLat                     33329.66                       # Average queueing delay per DRAM burst
system.mem_ctrls.avgBusLat                    5000.00                       # Average bus latency per DRAM burst
system.mem_ctrls.avgMemAccLat                52079.66                       # Average memory access latency per DRAM burst
system.mem_ctrls.avgRdBW                       724.36                       # Average DRAM read bandwidth in MiByte/s
system.mem_ctrls.avgWrBW                         1.36                       # Average achieved write bandwidth in MiByte/s
system.mem_ctrls.avgRdBWSys                    368.40                       # Average system read bandwidth in MiByte/s
system.mem_ctrls.avgWrBWSys                      5.26                       # Average system write bandwidth in MiByte/s
system.mem_ctrls.peakBW                      12800.00                       # Theoretical peak bandwidth in MiByte/s
system.mem_ctrls.busUtil                         5.67                       # Data bus utilization in percentage
system.mem_ctrls.busUtilRead                     5.66                       # Data bus utilization in percentage for reads
system.mem_ctrls.busUtilWrite                    0.01                       # Data bus utilization in percentage for writes
system.mem_ctrls.avgRdQLen                       6.96                       # Average read queue length when enqueuing
system.mem_ctrls.avgWrQLen                      24.47                       # Average write queue length when enqueuing
system.mem_ctrls.readRowHits                   559492                       # Number of row buffer hits during reads
system.mem_ctrls.writeRowHits                    1052                       # Number of row buffer hits during writes
system.mem_ctrls.readRowHitRate                 91.12                       # Row buffer hit rate for reads
system.mem_ctrls.writeRowHitRate                89.99                       # Row buffer hit rate for writes
system.mem_ctrls.avgGap                      85639.67                       # Average gap between requests
system.mem_ctrls.pageHitRate                    91.12                       # Row buffer hit rate, read and write combined
system.mem_ctrls_0.actEnergy                193501140                       # Energy for activate commands per rank (pJ)
system.mem_ctrls_0.preEnergy                102840705                       # Energy for precharge commands per rank (pJ)
system.mem_ctrls_0.readEnergy              2232406680                       # Energy for read commands per rank (pJ)
system.mem_ctrls_0.writeEnergy                4885920                       # Energy for write commands per rank (pJ)
system.mem_ctrls_0.refreshEnergy         4177093440.000000                       # Energy for refresh commands per rank (pJ)
system.mem_ctrls_0.actBackEnergy           4283394960                       # Energy for active background per rank (pJ)
system.mem_ctrls_0.preBackEnergy            242046720                       # Energy for precharge background per rank (pJ)
system.mem_ctrls_0.actPowerDownEnergy     13797186870                       # Energy for active power-down per rank (pJ)
system.mem_ctrls_0.prePowerDownEnergy      4950640800                       # Energy for precharge power-down per rank (pJ)
system.mem_ctrls_0.selfRefreshEnergy        818886000                       # Energy for self refresh per rank (pJ)
system.mem_ctrls_0.totalEnergy            30815075805                       # Total energy per rank (pJ)
system.mem_ctrls_0.averagePower            568.024731                       # Core power per rank (mW)
system.mem_ctrls_0.totalIdleTime          44199093323                       # Total Idle time Per DRAM Rank
system.mem_ctrls_0.memoryStateTime::IDLE    357384240                       # Time in different power states
system.mem_ctrls_0.memoryStateTime::REF    1766960000                       # Time in different power states
system.mem_ctrls_0.memoryStateTime::SREF   1049419836                       # Time in different power states
system.mem_ctrls_0.memoryStateTime::PRE_PDN  12892002998                       # Time in different power states
system.mem_ctrls_0.memoryStateTime::ACT    7926040187                       # Time in different power states
system.mem_ctrls_0.memoryStateTime::ACT_PDN  30257724739                       # Time in different power states
system.mem_ctrls_1.actEnergy                196442820                       # Energy for activate commands per rank (pJ)
system.mem_ctrls_1.preEnergy                104408040                       # Energy for precharge commands per rank (pJ)
system.mem_ctrls_1.readEnergy              2151596160                       # Energy for read commands per rank (pJ)
system.mem_ctrls_1.writeEnergy                1127520                       # Energy for write commands per rank (pJ)
system.mem_ctrls_1.refreshEnergy         4223806080.000000                       # Energy for refresh commands per rank (pJ)
system.mem_ctrls_1.actBackEnergy          10535938710                       # Energy for active background per rank (pJ)
system.mem_ctrls_1.preBackEnergy            151523040                       # Energy for precharge background per rank (pJ)
system.mem_ctrls_1.actPowerDownEnergy      8128400070                       # Energy for active power-down per rank (pJ)
system.mem_ctrls_1.prePowerDownEnergy      4729450560                       # Energy for precharge power-down per rank (pJ)
system.mem_ctrls_1.selfRefreshEnergy        402734700                       # Energy for self refresh per rank (pJ)
system.mem_ctrls_1.totalEnergy            30626096760                       # Total energy per rank (pJ)
system.mem_ctrls_1.averagePower            564.541216                       # Core power per rank (mW)
system.mem_ctrls_1.totalIdleTime          30748811209                       # Total Idle time Per DRAM Rank
system.mem_ctrls_1.memoryStateTime::IDLE    175741166                       # Time in different power states
system.mem_ctrls_1.memoryStateTime::REF    1786720000                       # Time in different power states
system.mem_ctrls_1.memoryStateTime::SREF    606615892                       # Time in different power states
system.mem_ctrls_1.memoryStateTime::PRE_PDN  12316049190                       # Time in different power states
system.mem_ctrls_1.memoryStateTime::ACT   21538259625                       # Time in different power states
system.mem_ctrls_1.memoryStateTime::ACT_PDN  17826146127                       # Time in different power states
system.pwrStateResidencyTicks::UNDEFINED  54249532000                       # Cumulative time (in ticks) in various power states
system.cpu_voltage_domain.voltage                   1                       # Voltage in Volts
system.cpu_clk_domain.clock                       500                       # Clock period in ticks
system.membus.snoop_filter.tot_requests       1248582                       # Total number of requests made to the snoop filter.
system.membus.snoop_filter.hit_single_requests       624035                       # Number of requests hitting in the snoop filter with a single holder of the requested data.
system.membus.snoop_filter.hit_multi_requests            0                       # Number of requests hitting in the snoop filter with multiple (>1) holders of the requested data.
system.membus.snoop_filter.tot_snoops               0                       # Total number of snoops made to the snoop filter.
system.membus.snoop_filter.hit_single_snoops            0                       # Number of snoops hitting in the snoop filter with a single holder of the requested data.
system.membus.snoop_filter.hit_multi_snoops            0                       # Number of snoops hitting in the snoop filter with multiple (>1) holders of the requested data.
system.membus.pwrStateResidencyTicks::UNDEFINED  54249532000                       # Cumulative time (in ticks) in various power states
system.membus.trans_dist::ReadResp             620015                       # Transaction distribution
system.membus.trans_dist::WritebackDirty         8913                       # Transaction distribution
system.membus.trans_dist::CleanEvict           615122                       # Transaction distribution
system.membus.trans_dist::ReadExReq              4532                       # Transaction distribution
system.membus.trans_dist::ReadExResp             4532                       # Transaction distribution
system.membus.trans_dist::ReadSharedReq        620015                       # Transaction distribution
system.membus.pkt_count_system.viterbi_viterbi_datapath.cache.mem_side::system.mem_ctrls.port      1873129                       # Packet count per connected master and slave (bytes)
system.membus.pkt_count::total                1873129                       # Packet count per connected master and slave (bytes)
system.membus.pkt_size_system.viterbi_viterbi_datapath.cache.mem_side::system.mem_ctrls.port     20270720                       # Cumulative packet size per connected master and slave (bytes)
system.membus.pkt_size::total                20270720                       # Cumulative packet size per connected master and slave (bytes)
system.membus.snoops                                0                       # Total snoops (count)
system.membus.snoopTraffic                          0                       # Total snoop traffic (bytes)
system.membus.snoop_fanout::samples            624547                       # Request fanout histogram
system.membus.snoop_fanout::mean                    0                       # Request fanout histogram
system.membus.snoop_fanout::stdev                   0                       # Request fanout histogram
system.membus.snoop_fanout::underflows              0      0.00%      0.00% # Request fanout histogram
system.membus.snoop_fanout::0                  624547    100.00%    100.00% # Request fanout histogram
system.membus.snoop_fanout::1                       0      0.00%    100.00% # Request fanout histogram
system.membus.snoop_fanout::2                       0      0.00%    100.00% # Request fanout histogram
system.membus.snoop_fanout::overflows               0      0.00%    100.00% # Request fanout histogram
system.membus.snoop_fanout::min_value               0                       # Request fanout histogram
system.membus.snoop_fanout::max_value               0                       # Request fanout histogram
system.membus.snoop_fanout::total              624547                       # Request fanout histogram
system.membus.reqLayer0.occupancy          3264897797                       # Layer occupancy (ticks)
system.membus.reqLayer0.utilization               6.0                       # Layer utilization (%)
system.membus.respLayer1.occupancy         3907579548                       # Layer occupancy (ticks)
system.membus.respLayer1.utilization              7.2                       # Layer utilization (%)
system.viterbi_viterbi_datapath.clk_domain.clock         2000                       # Clock period in ticks
system.viterbi_viterbi_datapath.pwrStateResidencyTicks::UNDEFINED  54249532000                       # Cumulative time (in ticks) in various power states
system.viterbi_viterbi_datapath.cache_queue_reads            0                       # Number of reads to the viterbi_viterbi_datapath.cache_queue
system.viterbi_viterbi_datapath.cache_queue_writes            0                       # Number of writes to the viterbi_viterbi_datapath.cache_queue
system.viterbi_viterbi_datapath.total_dcache_loads      1151986                       # Total number of dcache loads
system.viterbi_viterbi_datapath.total_dcache_stores         8960                       # Total number of dcache stores.
system.viterbi_viterbi_datapath.dcache_latency::samples      1160946                       # Histogram of dcache total access latency
system.viterbi_viterbi_datapath.dcache_latency::mean  9627.996283                       # Histogram of dcache total access latency
system.viterbi_viterbi_datapath.dcache_latency::gmean  2748.285547                       # Histogram of dcache total access latency
system.viterbi_viterbi_datapath.dcache_latency::stdev 32624.309695                       # Histogram of dcache total access latency
system.viterbi_viterbi_datapath.dcache_latency::0-32767      1061972     91.47%     91.47% # Histogram of dcache total access latency
system.viterbi_viterbi_datapath.dcache_latency::32768-65535         2041      0.18%     91.65% # Histogram of dcache total access latency
system.viterbi_viterbi_datapath.dcache_latency::65536-98303        86803      7.48%     99.13% # Histogram of dcache total access latency
system.viterbi_viterbi_datapath.dcache_latency::98304-131071         5932      0.51%     99.64% # Histogram of dcache total access latency
system.viterbi_viterbi_datapath.dcache_latency::131072-163839          362      0.03%     99.67% # Histogram of dcache total access latency
system.viterbi_viterbi_datapath.dcache_latency::163840-196607          465      0.04%     99.71% # Histogram of dcache total access latency
system.viterbi_viterbi_datapath.dcache_latency::196608-229375          328      0.03%     99.74% # Histogram of dcache total access latency
system.viterbi_viterbi_datapath.dcache_latency::229376-262143          486      0.04%     99.78% # Histogram of dcache total access latency
system.viterbi_viterbi_datapath.dcache_latency::262144-294911          287      0.02%     99.80% # Histogram of dcache total access latency
system.viterbi_viterbi_datapath.dcache_latency::294912-327679          333      0.03%     99.83% # Histogram of dcache total access latency
system.viterbi_viterbi_datapath.dcache_latency::327680-360447          352      0.03%     99.86% # Histogram of dcache total access latency
system.viterbi_viterbi_datapath.dcache_latency::360448-393215           92      0.01%     99.87% # Histogram of dcache total access latency
system.viterbi_viterbi_datapath.dcache_latency::393216-425983           32      0.00%     99.87% # Histogram of dcache total access latency
system.viterbi_viterbi_datapath.dcache_latency::425984-458751            0      0.00%     99.87% # Histogram of dcache total access latency
system.viterbi_viterbi_datapath.dcache_latency::458752-491519            2      0.00%     99.87% # Histogram of dcache total access latency
system.viterbi_viterbi_datapath.dcache_latency::491520-524287            0      0.00%     99.87% # Histogram of dcache total access latency
system.viterbi_viterbi_datapath.dcache_latency::524288-557055            0      0.00%     99.87% # Histogram of dcache total access latency
system.viterbi_viterbi_datapath.dcache_latency::557056-589823           14      0.00%     99.88% # Histogram of dcache total access latency
system.viterbi_viterbi_datapath.dcache_latency::589824-622591         1445      0.12%    100.00% # Histogram of dcache total access latency
system.viterbi_viterbi_datapath.dcache_latency::622592-655359            0      0.00%    100.00% # Histogram of dcache total access latency
system.viterbi_viterbi_datapath.dcache_latency::655360-688127            0      0.00%    100.00% # Histogram of dcache total access latency
system.viterbi_viterbi_datapath.dcache_latency::688128-720895            0      0.00%    100.00% # Histogram of dcache total access latency
system.viterbi_viterbi_datapath.dcache_latency::720896-753663            0      0.00%    100.00% # Histogram of dcache total access latency
system.viterbi_viterbi_datapath.dcache_latency::753664-786431            0      0.00%    100.00% # Histogram of dcache total access latency
system.viterbi_viterbi_datapath.dcache_latency::786432-819199            0      0.00%    100.00% # Histogram of dcache total access latency
system.viterbi_viterbi_datapath.dcache_latency::819200-851967            0      0.00%    100.00% # Histogram of dcache total access latency
system.viterbi_viterbi_datapath.dcache_latency::851968-884735            0      0.00%    100.00% # Histogram of dcache total access latency
system.viterbi_viterbi_datapath.dcache_latency::884736-917503            0      0.00%    100.00% # Histogram of dcache total access latency
system.viterbi_viterbi_datapath.dcache_latency::917504-950271            0      0.00%    100.00% # Histogram of dcache total access latency
system.viterbi_viterbi_datapath.dcache_latency::950272-983039            0      0.00%    100.00% # Histogram of dcache total access latency
system.viterbi_viterbi_datapath.dcache_latency::total      1160946                       # Histogram of dcache total access latency
system.viterbi_viterbi_datapath.dcache_queue_time::samples      1156843                       # Histogram of time dcache request spent in queue
system.viterbi_viterbi_datapath.dcache_queue_time::mean 45299.986256                       # Histogram of time dcache request spent in queue
system.viterbi_viterbi_datapath.dcache_queue_time::gmean 44350.740008                       # Histogram of time dcache request spent in queue
system.viterbi_viterbi_datapath.dcache_queue_time::stdev 11302.323362                       # Histogram of time dcache request spent in queue
system.viterbi_viterbi_datapath.dcache_queue_time::0-8191            0      0.00%      0.00% # Histogram of time dcache request spent in queue
system.viterbi_viterbi_datapath.dcache_queue_time::8192-16383            0      0.00%      0.00% # Histogram of time dcache request spent in queue
system.viterbi_viterbi_datapath.dcache_queue_time::16384-24575            0      0.00%      0.00% # Histogram of time dcache request spent in queue
system.viterbi_viterbi_datapath.dcache_queue_time::24576-32767            0      0.00%      0.00% # Histogram of time dcache request spent in queue
system.viterbi_viterbi_datapath.dcache_queue_time::32768-40959            0      0.00%      0.00% # Histogram of time dcache request spent in queue
system.viterbi_viterbi_datapath.dcache_queue_time::40960-49151      1065953     92.14%     92.14% # Histogram of time dcache request spent in queue
system.viterbi_viterbi_datapath.dcache_queue_time::49152-57343           15      0.00%     92.14% # Histogram of time dcache request spent in queue
system.viterbi_viterbi_datapath.dcache_queue_time::57344-65535            0      0.00%     92.14% # Histogram of time dcache request spent in queue
system.viterbi_viterbi_datapath.dcache_queue_time::65536-73727            1      0.00%     92.14% # Histogram of time dcache request spent in queue
system.viterbi_viterbi_datapath.dcache_queue_time::73728-81919            0      0.00%     92.14% # Histogram of time dcache request spent in queue
system.viterbi_viterbi_datapath.dcache_queue_time::81920-90111        90854      7.85%    100.00% # Histogram of time dcache request spent in queue
system.viterbi_viterbi_datapath.dcache_queue_time::90112-98303           14      0.00%    100.00% # Histogram of time dcache request spent in queue
system.viterbi_viterbi_datapath.dcache_queue_time::98304-106495            2      0.00%    100.00% # Histogram of time dcache request spent in queue
system.viterbi_viterbi_datapath.dcache_queue_time::106496-114687            0      0.00%    100.00% # Histogram of time dcache request spent in queue
system.viterbi_viterbi_datapath.dcache_queue_time::114688-122879            1      0.00%    100.00% # Histogram of time dcache request spent in queue
system.viterbi_viterbi_datapath.dcache_queue_time::122880-131071            1      0.00%    100.00% # Histogram of time dcache request spent in queue
system.viterbi_viterbi_datapath.dcache_queue_time::131072-139263            0      0.00%    100.00% # Histogram of time dcache request spent in queue
system.viterbi_viterbi_datapath.dcache_queue_time::139264-147455            0      0.00%    100.00% # Histogram of time dcache request spent in queue
system.viterbi_viterbi_datapath.dcache_queue_time::147456-155647            0      0.00%    100.00% # Histogram of time dcache request spent in queue
system.viterbi_viterbi_datapath.dcache_queue_time::155648-163839            0      0.00%    100.00% # Histogram of time dcache request spent in queue
system.viterbi_viterbi_datapath.dcache_queue_time::163840-172031            0      0.00%    100.00% # Histogram of time dcache request spent in queue
system.viterbi_viterbi_datapath.dcache_queue_time::172032-180223            1      0.00%    100.00% # Histogram of time dcache request spent in queue
system.viterbi_viterbi_datapath.dcache_queue_time::180224-188415            0      0.00%    100.00% # Histogram of time dcache request spent in queue
system.viterbi_viterbi_datapath.dcache_queue_time::188416-196607            0      0.00%    100.00% # Histogram of time dcache request spent in queue
system.viterbi_viterbi_datapath.dcache_queue_time::196608-204799            1      0.00%    100.00% # Histogram of time dcache request spent in queue
system.viterbi_viterbi_datapath.dcache_queue_time::204800-212991            0      0.00%    100.00% # Histogram of time dcache request spent in queue
system.viterbi_viterbi_datapath.dcache_queue_time::212992-221183            0      0.00%    100.00% # Histogram of time dcache request spent in queue
system.viterbi_viterbi_datapath.dcache_queue_time::221184-229375            0      0.00%    100.00% # Histogram of time dcache request spent in queue
system.viterbi_viterbi_datapath.dcache_queue_time::229376-237567            0      0.00%    100.00% # Histogram of time dcache request spent in queue
system.viterbi_viterbi_datapath.dcache_queue_time::237568-245759            0      0.00%    100.00% # Histogram of time dcache request spent in queue
system.viterbi_viterbi_datapath.dcache_queue_time::total      1156843                       # Histogram of time dcache request spent in queue
system.viterbi_viterbi_datapath.total_acp_loads            0                       # Total number of ACP loads
system.viterbi_viterbi_datapath.total_acp_stores            0                       # Total number of ACP stores.
system.viterbi_viterbi_datapath.acp_latency::samples            0                       # Histogram of ACP transaction total latency
system.viterbi_viterbi_datapath.acp_latency::mean          nan                       # Histogram of ACP transaction total latency
system.viterbi_viterbi_datapath.acp_latency::gmean          nan                       # Histogram of ACP transaction total latency
system.viterbi_viterbi_datapath.acp_latency::stdev          nan                       # Histogram of ACP transaction total latency
system.viterbi_viterbi_datapath.acp_latency::0            0                       # Histogram of ACP transaction total latency
system.viterbi_viterbi_datapath.acp_latency::1            0                       # Histogram of ACP transaction total latency
system.viterbi_viterbi_datapath.acp_latency::2            0                       # Histogram of ACP transaction total latency
system.viterbi_viterbi_datapath.acp_latency::3            0                       # Histogram of ACP transaction total latency
system.viterbi_viterbi_datapath.acp_latency::4            0                       # Histogram of ACP transaction total latency
system.viterbi_viterbi_datapath.acp_latency::5            0                       # Histogram of ACP transaction total latency
system.viterbi_viterbi_datapath.acp_latency::6            0                       # Histogram of ACP transaction total latency
system.viterbi_viterbi_datapath.acp_latency::7            0                       # Histogram of ACP transaction total latency
system.viterbi_viterbi_datapath.acp_latency::8            0                       # Histogram of ACP transaction total latency
system.viterbi_viterbi_datapath.acp_latency::9            0                       # Histogram of ACP transaction total latency
system.viterbi_viterbi_datapath.acp_latency::10            0                       # Histogram of ACP transaction total latency
system.viterbi_viterbi_datapath.acp_latency::11            0                       # Histogram of ACP transaction total latency
system.viterbi_viterbi_datapath.acp_latency::12            0                       # Histogram of ACP transaction total latency
system.viterbi_viterbi_datapath.acp_latency::13            0                       # Histogram of ACP transaction total latency
system.viterbi_viterbi_datapath.acp_latency::14            0                       # Histogram of ACP transaction total latency
system.viterbi_viterbi_datapath.acp_latency::15            0                       # Histogram of ACP transaction total latency
system.viterbi_viterbi_datapath.acp_latency::16            0                       # Histogram of ACP transaction total latency
system.viterbi_viterbi_datapath.acp_latency::17            0                       # Histogram of ACP transaction total latency
system.viterbi_viterbi_datapath.acp_latency::18            0                       # Histogram of ACP transaction total latency
system.viterbi_viterbi_datapath.acp_latency::19            0                       # Histogram of ACP transaction total latency
system.viterbi_viterbi_datapath.acp_latency::20            0                       # Histogram of ACP transaction total latency
system.viterbi_viterbi_datapath.acp_latency::21            0                       # Histogram of ACP transaction total latency
system.viterbi_viterbi_datapath.acp_latency::22            0                       # Histogram of ACP transaction total latency
system.viterbi_viterbi_datapath.acp_latency::23            0                       # Histogram of ACP transaction total latency
system.viterbi_viterbi_datapath.acp_latency::24            0                       # Histogram of ACP transaction total latency
system.viterbi_viterbi_datapath.acp_latency::25            0                       # Histogram of ACP transaction total latency
system.viterbi_viterbi_datapath.acp_latency::26            0                       # Histogram of ACP transaction total latency
system.viterbi_viterbi_datapath.acp_latency::27            0                       # Histogram of ACP transaction total latency
system.viterbi_viterbi_datapath.acp_latency::28            0                       # Histogram of ACP transaction total latency
system.viterbi_viterbi_datapath.acp_latency::29            0                       # Histogram of ACP transaction total latency
system.viterbi_viterbi_datapath.acp_latency::total            0                       # Histogram of ACP transaction total latency
system.viterbi_viterbi_datapath.acp_queue_time::samples            0                       # Histogram of time ACP request spent in queue
system.viterbi_viterbi_datapath.acp_queue_time::mean          nan                       # Histogram of time ACP request spent in queue
system.viterbi_viterbi_datapath.acp_queue_time::gmean          nan                       # Histogram of time ACP request spent in queue
system.viterbi_viterbi_datapath.acp_queue_time::stdev          nan                       # Histogram of time ACP request spent in queue
system.viterbi_viterbi_datapath.acp_queue_time::0            0                       # Histogram of time ACP request spent in queue
system.viterbi_viterbi_datapath.acp_queue_time::1            0                       # Histogram of time ACP request spent in queue
system.viterbi_viterbi_datapath.acp_queue_time::2            0                       # Histogram of time ACP request spent in queue
system.viterbi_viterbi_datapath.acp_queue_time::3            0                       # Histogram of time ACP request spent in queue
system.viterbi_viterbi_datapath.acp_queue_time::4            0                       # Histogram of time ACP request spent in queue
system.viterbi_viterbi_datapath.acp_queue_time::5            0                       # Histogram of time ACP request spent in queue
system.viterbi_viterbi_datapath.acp_queue_time::6            0                       # Histogram of time ACP request spent in queue
system.viterbi_viterbi_datapath.acp_queue_time::7            0                       # Histogram of time ACP request spent in queue
system.viterbi_viterbi_datapath.acp_queue_time::8            0                       # Histogram of time ACP request spent in queue
system.viterbi_viterbi_datapath.acp_queue_time::9            0                       # Histogram of time ACP request spent in queue
system.viterbi_viterbi_datapath.acp_queue_time::10            0                       # Histogram of time ACP request spent in queue
system.viterbi_viterbi_datapath.acp_queue_time::11            0                       # Histogram of time ACP request spent in queue
system.viterbi_viterbi_datapath.acp_queue_time::12            0                       # Histogram of time ACP request spent in queue
system.viterbi_viterbi_datapath.acp_queue_time::13            0                       # Histogram of time ACP request spent in queue
system.viterbi_viterbi_datapath.acp_queue_time::14            0                       # Histogram of time ACP request spent in queue
system.viterbi_viterbi_datapath.acp_queue_time::15            0                       # Histogram of time ACP request spent in queue
system.viterbi_viterbi_datapath.acp_queue_time::16            0                       # Histogram of time ACP request spent in queue
system.viterbi_viterbi_datapath.acp_queue_time::17            0                       # Histogram of time ACP request spent in queue
system.viterbi_viterbi_datapath.acp_queue_time::18            0                       # Histogram of time ACP request spent in queue
system.viterbi_viterbi_datapath.acp_queue_time::19            0                       # Histogram of time ACP request spent in queue
system.viterbi_viterbi_datapath.acp_queue_time::20            0                       # Histogram of time ACP request spent in queue
system.viterbi_viterbi_datapath.acp_queue_time::21            0                       # Histogram of time ACP request spent in queue
system.viterbi_viterbi_datapath.acp_queue_time::22            0                       # Histogram of time ACP request spent in queue
system.viterbi_viterbi_datapath.acp_queue_time::23            0                       # Histogram of time ACP request spent in queue
system.viterbi_viterbi_datapath.acp_queue_time::24            0                       # Histogram of time ACP request spent in queue
system.viterbi_viterbi_datapath.acp_queue_time::25            0                       # Histogram of time ACP request spent in queue
system.viterbi_viterbi_datapath.acp_queue_time::26            0                       # Histogram of time ACP request spent in queue
system.viterbi_viterbi_datapath.acp_queue_time::27            0                       # Histogram of time ACP request spent in queue
system.viterbi_viterbi_datapath.acp_queue_time::28            0                       # Histogram of time ACP request spent in queue
system.viterbi_viterbi_datapath.acp_queue_time::29            0                       # Histogram of time ACP request spent in queue
system.viterbi_viterbi_datapath.acp_queue_time::total            0                       # Histogram of time ACP request spent in queue
system.viterbi_viterbi_datapath.dma_setup_cycles            0                       # Total number of cycles spent on setting up DMA transfers.
system.viterbi_viterbi_datapath.sim_cycles     27124752                       # Total accelerator cycles
system.viterbi_viterbi_datapath.tlb.hits      1160946                       # TLB hits
system.viterbi_viterbi_datapath.tlb.misses        92276                       # TLB misses
system.viterbi_viterbi_datapath.tlb.reads      1253222                       # TLB reads
system.viterbi_viterbi_datapath.tlb.updates        91066                       # TLB updates
system.viterbi_viterbi_datapath.tlb.hitRate     0.926369                       # TLB hit rate
system.viterbi_viterbi_datapath.cache.prefetcher.pwrStateResidencyTicks::UNDEFINED  54249532000                       # Cumulative time (in ticks) in various power states
system.viterbi_viterbi_datapath.cache.prefetcher.num_hwpf_issued      6399889                       # number of hwpf issued
system.viterbi_viterbi_datapath.cache.prefetcher.pfIdentified      6420053                       # number of prefetch candidates identified
system.viterbi_viterbi_datapath.cache.prefetcher.pfBufferHit        15527                       # number of redundant prefetches already in prefetch queue
system.viterbi_viterbi_datapath.cache.prefetcher.pfInCache            0                       # number of redundant prefetches already in cache/mshr dropped
system.viterbi_viterbi_datapath.cache.prefetcher.pfRemovedFull         1190                       # number of prefetches dropped due to prefetch queue size
system.viterbi_viterbi_datapath.cache.prefetcher.pfSpanPage      2795299                       # number of prefetches not generated due to page crossing
system.viterbi_viterbi_datapath.cache.tags.pwrStateResidencyTicks::UNDEFINED  54249532000                       # Cumulative time (in ticks) in various power states
system.viterbi_viterbi_datapath.cache.tags.tagsinuse   510.528897                       # Cycle average of tags in use
system.viterbi_viterbi_datapath.cache.tags.total_refs      1686425                       # Total number of references to valid blocks.
system.viterbi_viterbi_datapath.cache.tags.sampled_refs       624547                       # Sample count of references to valid blocks.
system.viterbi_viterbi_datapath.cache.tags.avg_refs     2.700237                       # Average number of references to valid blocks.
system.viterbi_viterbi_datapath.cache.tags.warmup_cycle       192384                       # Cycle when the warmup percentage was hit.
system.viterbi_viterbi_datapath.cache.tags.occ_blocks::.viterbi_viterbi_datapath.system.viterbi_viterbi_datapath.cache    70.003390                       # Average occupied blocks per requestor
system.viterbi_viterbi_datapath.cache.tags.occ_blocks::.viterbi_viterbi_datapath.cache.prefetcher   440.525507                       # Average occupied blocks per requestor
system.viterbi_viterbi_datapath.cache.tags.occ_percent::.viterbi_viterbi_datapath.system.viterbi_viterbi_datapath.cache     0.136725                       # Average percentage of cache occupancy
system.viterbi_viterbi_datapath.cache.tags.occ_percent::.viterbi_viterbi_datapath.cache.prefetcher     0.860401                       # Average percentage of cache occupancy
system.viterbi_viterbi_datapath.cache.tags.occ_percent::total     0.997127                       # Average percentage of cache occupancy
system.viterbi_viterbi_datapath.cache.tags.occ_task_id_blocks::1022           20                       # Occupied blocks per task id
system.viterbi_viterbi_datapath.cache.tags.occ_task_id_blocks::1024          492                       # Occupied blocks per task id
system.viterbi_viterbi_datapath.cache.tags.age_task_id_blocks_1022::0           20                       # Occupied blocks per task id
system.viterbi_viterbi_datapath.cache.tags.age_task_id_blocks_1024::0          428                       # Occupied blocks per task id
system.viterbi_viterbi_datapath.cache.tags.age_task_id_blocks_1024::1           64                       # Occupied blocks per task id
system.viterbi_viterbi_datapath.cache.tags.occ_task_id_percent::1022     0.039062                       # Percentage of cache occupancy per task id
system.viterbi_viterbi_datapath.cache.tags.occ_task_id_percent::1024     0.960938                       # Percentage of cache occupancy per task id
system.viterbi_viterbi_datapath.cache.tags.tag_accesses      5268331                       # Number of tag accesses
system.viterbi_viterbi_datapath.cache.tags.data_accesses      5268331                       # Number of data accesses
system.viterbi_viterbi_datapath.cache.pwrStateResidencyTicks::UNDEFINED  54249532000                       # Cumulative time (in ticks) in various power states
system.viterbi_viterbi_datapath.cache.ReadReq_hits::.viterbi_viterbi_datapath.system.viterbi_viterbi_datapath.cache      1057455                       # number of ReadReq hits
system.viterbi_viterbi_datapath.cache.ReadReq_hits::total      1057455                       # number of ReadReq hits
system.viterbi_viterbi_datapath.cache.WriteReq_hits::.viterbi_viterbi_datapath.system.viterbi_viterbi_datapath.cache         4423                       # number of WriteReq hits
system.viterbi_viterbi_datapath.cache.WriteReq_hits::total         4423                       # number of WriteReq hits
system.viterbi_viterbi_datapath.cache.demand_hits::.viterbi_viterbi_datapath.system.viterbi_viterbi_datapath.cache      1061878                       # number of demand (read+write) hits
system.viterbi_viterbi_datapath.cache.demand_hits::total      1061878                       # number of demand (read+write) hits
system.viterbi_viterbi_datapath.cache.overall_hits::.viterbi_viterbi_datapath.system.viterbi_viterbi_datapath.cache      1061878                       # number of overall hits
system.viterbi_viterbi_datapath.cache.overall_hits::total      1061878                       # number of overall hits
system.viterbi_viterbi_datapath.cache.ReadReq_misses::.viterbi_viterbi_datapath.system.viterbi_viterbi_datapath.cache        94531                       # number of ReadReq misses
system.viterbi_viterbi_datapath.cache.ReadReq_misses::total        94531                       # number of ReadReq misses
system.viterbi_viterbi_datapath.cache.WriteReq_misses::.viterbi_viterbi_datapath.system.viterbi_viterbi_datapath.cache         4537                       # number of WriteReq misses
system.viterbi_viterbi_datapath.cache.WriteReq_misses::total         4537                       # number of WriteReq misses
system.viterbi_viterbi_datapath.cache.demand_misses::.viterbi_viterbi_datapath.system.viterbi_viterbi_datapath.cache        99068                       # number of demand (read+write) misses
system.viterbi_viterbi_datapath.cache.demand_misses::total        99068                       # number of demand (read+write) misses
system.viterbi_viterbi_datapath.cache.overall_misses::.viterbi_viterbi_datapath.system.viterbi_viterbi_datapath.cache        99068                       # number of overall misses
system.viterbi_viterbi_datapath.cache.overall_misses::total        99068                       # number of overall misses
system.viterbi_viterbi_datapath.cache.ReadReq_miss_latency::.viterbi_viterbi_datapath.system.viterbi_viterbi_datapath.cache   8721669626                       # number of ReadReq miss cycles
system.viterbi_viterbi_datapath.cache.ReadReq_miss_latency::total   8721669626                       # number of ReadReq miss cycles
system.viterbi_viterbi_datapath.cache.WriteReq_miss_latency::.viterbi_viterbi_datapath.system.viterbi_viterbi_datapath.cache    331662008                       # number of WriteReq miss cycles
system.viterbi_viterbi_datapath.cache.WriteReq_miss_latency::total    331662008                       # number of WriteReq miss cycles
system.viterbi_viterbi_datapath.cache.demand_miss_latency::.viterbi_viterbi_datapath.system.viterbi_viterbi_datapath.cache   9053331634                       # number of demand (read+write) miss cycles
system.viterbi_viterbi_datapath.cache.demand_miss_latency::total   9053331634                       # number of demand (read+write) miss cycles
system.viterbi_viterbi_datapath.cache.overall_miss_latency::.viterbi_viterbi_datapath.system.viterbi_viterbi_datapath.cache   9053331634                       # number of overall miss cycles
system.viterbi_viterbi_datapath.cache.overall_miss_latency::total   9053331634                       # number of overall miss cycles
system.viterbi_viterbi_datapath.cache.ReadReq_accesses::.viterbi_viterbi_datapath.system.viterbi_viterbi_datapath.cache      1151986                       # number of ReadReq accesses(hits+misses)
system.viterbi_viterbi_datapath.cache.ReadReq_accesses::total      1151986                       # number of ReadReq accesses(hits+misses)
system.viterbi_viterbi_datapath.cache.WriteReq_accesses::.viterbi_viterbi_datapath.system.viterbi_viterbi_datapath.cache         8960                       # number of WriteReq accesses(hits+misses)
system.viterbi_viterbi_datapath.cache.WriteReq_accesses::total         8960                       # number of WriteReq accesses(hits+misses)
system.viterbi_viterbi_datapath.cache.demand_accesses::.viterbi_viterbi_datapath.system.viterbi_viterbi_datapath.cache      1160946                       # number of demand (read+write) accesses
system.viterbi_viterbi_datapath.cache.demand_accesses::total      1160946                       # number of demand (read+write) accesses
system.viterbi_viterbi_datapath.cache.overall_accesses::.viterbi_viterbi_datapath.system.viterbi_viterbi_datapath.cache      1160946                       # number of overall (read+write) accesses
system.viterbi_viterbi_datapath.cache.overall_accesses::total      1160946                       # number of overall (read+write) accesses
system.viterbi_viterbi_datapath.cache.ReadReq_miss_rate::.viterbi_viterbi_datapath.system.viterbi_viterbi_datapath.cache     0.082059                       # miss rate for ReadReq accesses
system.viterbi_viterbi_datapath.cache.ReadReq_miss_rate::total     0.082059                       # miss rate for ReadReq accesses
system.viterbi_viterbi_datapath.cache.WriteReq_miss_rate::.viterbi_viterbi_datapath.system.viterbi_viterbi_datapath.cache     0.506362                       # miss rate for WriteReq accesses
system.viterbi_viterbi_datapath.cache.WriteReq_miss_rate::total     0.506362                       # miss rate for WriteReq accesses
system.viterbi_viterbi_datapath.cache.demand_miss_rate::.viterbi_viterbi_datapath.system.viterbi_viterbi_datapath.cache     0.085334                       # miss rate for demand accesses
system.viterbi_viterbi_datapath.cache.demand_miss_rate::total     0.085334                       # miss rate for demand accesses
system.viterbi_viterbi_datapath.cache.overall_miss_rate::.viterbi_viterbi_datapath.system.viterbi_viterbi_datapath.cache     0.085334                       # miss rate for overall accesses
system.viterbi_viterbi_datapath.cache.overall_miss_rate::total     0.085334                       # miss rate for overall accesses
system.viterbi_viterbi_datapath.cache.ReadReq_avg_miss_latency::.viterbi_viterbi_datapath.system.viterbi_viterbi_datapath.cache 92262.534259                       # average ReadReq miss latency
system.viterbi_viterbi_datapath.cache.ReadReq_avg_miss_latency::total 92262.534259                       # average ReadReq miss latency
system.viterbi_viterbi_datapath.cache.WriteReq_avg_miss_latency::.viterbi_viterbi_datapath.system.viterbi_viterbi_datapath.cache 73101.610756                       # average WriteReq miss latency
system.viterbi_viterbi_datapath.cache.WriteReq_avg_miss_latency::total 73101.610756                       # average WriteReq miss latency
system.viterbi_viterbi_datapath.cache.demand_avg_miss_latency::.viterbi_viterbi_datapath.system.viterbi_viterbi_datapath.cache 91385.024771                       # average overall miss latency
system.viterbi_viterbi_datapath.cache.demand_avg_miss_latency::total 91385.024771                       # average overall miss latency
system.viterbi_viterbi_datapath.cache.overall_avg_miss_latency::.viterbi_viterbi_datapath.system.viterbi_viterbi_datapath.cache 91385.024771                       # average overall miss latency
system.viterbi_viterbi_datapath.cache.overall_avg_miss_latency::total 91385.024771                       # average overall miss latency
system.viterbi_viterbi_datapath.cache.blocked_cycles::no_mshrs        14097                       # number of cycles access was blocked
system.viterbi_viterbi_datapath.cache.blocked_cycles::no_targets            0                       # number of cycles access was blocked
system.viterbi_viterbi_datapath.cache.blocked::no_mshrs         4109                       # number of cycles access was blocked
system.viterbi_viterbi_datapath.cache.blocked::no_targets            0                       # number of cycles access was blocked
system.viterbi_viterbi_datapath.cache.avg_blocked_cycles::no_mshrs     3.430762                       # average number of cycles each access was blocked
system.viterbi_viterbi_datapath.cache.avg_blocked_cycles::no_targets          nan                       # average number of cycles each access was blocked
system.viterbi_viterbi_datapath.cache.unused_prefetches        23888                       # number of HardPF blocks evicted w/o reference
system.viterbi_viterbi_datapath.cache.writebacks::.writebacks         8913                       # number of writebacks
system.viterbi_viterbi_datapath.cache.writebacks::total         8913                       # number of writebacks
system.viterbi_viterbi_datapath.cache.ReadReq_mshr_hits::.viterbi_viterbi_datapath.system.viterbi_viterbi_datapath.cache          261                       # number of ReadReq MSHR hits
system.viterbi_viterbi_datapath.cache.ReadReq_mshr_hits::total          261                       # number of ReadReq MSHR hits
system.viterbi_viterbi_datapath.cache.WriteReq_mshr_hits::.viterbi_viterbi_datapath.system.viterbi_viterbi_datapath.cache            5                       # number of WriteReq MSHR hits
system.viterbi_viterbi_datapath.cache.WriteReq_mshr_hits::total            5                       # number of WriteReq MSHR hits
system.viterbi_viterbi_datapath.cache.demand_mshr_hits::.viterbi_viterbi_datapath.system.viterbi_viterbi_datapath.cache          266                       # number of demand (read+write) MSHR hits
system.viterbi_viterbi_datapath.cache.demand_mshr_hits::total          266                       # number of demand (read+write) MSHR hits
system.viterbi_viterbi_datapath.cache.overall_mshr_hits::.viterbi_viterbi_datapath.system.viterbi_viterbi_datapath.cache          266                       # number of overall MSHR hits
system.viterbi_viterbi_datapath.cache.overall_mshr_hits::total          266                       # number of overall MSHR hits
system.viterbi_viterbi_datapath.cache.ReadReq_mshr_misses::.viterbi_viterbi_datapath.system.viterbi_viterbi_datapath.cache        94270                       # number of ReadReq MSHR misses
system.viterbi_viterbi_datapath.cache.ReadReq_mshr_misses::total        94270                       # number of ReadReq MSHR misses
system.viterbi_viterbi_datapath.cache.WriteReq_mshr_misses::.viterbi_viterbi_datapath.system.viterbi_viterbi_datapath.cache         4532                       # number of WriteReq MSHR misses
system.viterbi_viterbi_datapath.cache.WriteReq_mshr_misses::total         4532                       # number of WriteReq MSHR misses
system.viterbi_viterbi_datapath.cache.HardPFReq_mshr_misses::.viterbi_viterbi_datapath.cache.prefetcher       525745                       # number of HardPFReq MSHR misses
system.viterbi_viterbi_datapath.cache.HardPFReq_mshr_misses::total       525745                       # number of HardPFReq MSHR misses
system.viterbi_viterbi_datapath.cache.demand_mshr_misses::.viterbi_viterbi_datapath.system.viterbi_viterbi_datapath.cache        98802                       # number of demand (read+write) MSHR misses
system.viterbi_viterbi_datapath.cache.demand_mshr_misses::total        98802                       # number of demand (read+write) MSHR misses
system.viterbi_viterbi_datapath.cache.overall_mshr_misses::.viterbi_viterbi_datapath.system.viterbi_viterbi_datapath.cache        98802                       # number of overall MSHR misses
system.viterbi_viterbi_datapath.cache.overall_mshr_misses::.viterbi_viterbi_datapath.cache.prefetcher       525745                       # number of overall MSHR misses
system.viterbi_viterbi_datapath.cache.overall_mshr_misses::total       624547                       # number of overall MSHR misses
system.viterbi_viterbi_datapath.cache.ReadReq_mshr_miss_latency::.viterbi_viterbi_datapath.system.viterbi_viterbi_datapath.cache   8405678002                       # number of ReadReq MSHR miss cycles
system.viterbi_viterbi_datapath.cache.ReadReq_mshr_miss_latency::total   8405678002                       # number of ReadReq MSHR miss cycles
system.viterbi_viterbi_datapath.cache.WriteReq_mshr_miss_latency::.viterbi_viterbi_datapath.system.viterbi_viterbi_datapath.cache    316628056                       # number of WriteReq MSHR miss cycles
system.viterbi_viterbi_datapath.cache.WriteReq_mshr_miss_latency::total    316628056                       # number of WriteReq MSHR miss cycles
system.viterbi_viterbi_datapath.cache.HardPFReq_mshr_miss_latency::.viterbi_viterbi_datapath.cache.prefetcher  53011722258                       # number of HardPFReq MSHR miss cycles
system.viterbi_viterbi_datapath.cache.HardPFReq_mshr_miss_latency::total  53011722258                       # number of HardPFReq MSHR miss cycles
system.viterbi_viterbi_datapath.cache.demand_mshr_miss_latency::.viterbi_viterbi_datapath.system.viterbi_viterbi_datapath.cache   8722306058                       # number of demand (read+write) MSHR miss cycles
system.viterbi_viterbi_datapath.cache.demand_mshr_miss_latency::total   8722306058                       # number of demand (read+write) MSHR miss cycles
system.viterbi_viterbi_datapath.cache.overall_mshr_miss_latency::.viterbi_viterbi_datapath.system.viterbi_viterbi_datapath.cache   8722306058                       # number of overall MSHR miss cycles
system.viterbi_viterbi_datapath.cache.overall_mshr_miss_latency::.viterbi_viterbi_datapath.cache.prefetcher  53011722258                       # number of overall MSHR miss cycles
system.viterbi_viterbi_datapath.cache.overall_mshr_miss_latency::total  61734028316                       # number of overall MSHR miss cycles
system.viterbi_viterbi_datapath.cache.ReadReq_mshr_miss_rate::.viterbi_viterbi_datapath.system.viterbi_viterbi_datapath.cache     0.081833                       # mshr miss rate for ReadReq accesses
system.viterbi_viterbi_datapath.cache.ReadReq_mshr_miss_rate::total     0.081833                       # mshr miss rate for ReadReq accesses
system.viterbi_viterbi_datapath.cache.WriteReq_mshr_miss_rate::.viterbi_viterbi_datapath.system.viterbi_viterbi_datapath.cache     0.505804                       # mshr miss rate for WriteReq accesses
system.viterbi_viterbi_datapath.cache.WriteReq_mshr_miss_rate::total     0.505804                       # mshr miss rate for WriteReq accesses
system.viterbi_viterbi_datapath.cache.HardPFReq_mshr_miss_rate::.viterbi_viterbi_datapath.cache.prefetcher          inf                       # mshr miss rate for HardPFReq accesses
system.viterbi_viterbi_datapath.cache.HardPFReq_mshr_miss_rate::total          inf                       # mshr miss rate for HardPFReq accesses
system.viterbi_viterbi_datapath.cache.demand_mshr_miss_rate::.viterbi_viterbi_datapath.system.viterbi_viterbi_datapath.cache     0.085105                       # mshr miss rate for demand accesses
system.viterbi_viterbi_datapath.cache.demand_mshr_miss_rate::total     0.085105                       # mshr miss rate for demand accesses
system.viterbi_viterbi_datapath.cache.overall_mshr_miss_rate::.viterbi_viterbi_datapath.system.viterbi_viterbi_datapath.cache     0.085105                       # mshr miss rate for overall accesses
system.viterbi_viterbi_datapath.cache.overall_mshr_miss_rate::.viterbi_viterbi_datapath.cache.prefetcher          inf                       # mshr miss rate for overall accesses
system.viterbi_viterbi_datapath.cache.overall_mshr_miss_rate::total     0.537964                       # mshr miss rate for overall accesses
system.viterbi_viterbi_datapath.cache.ReadReq_avg_mshr_miss_latency::.viterbi_viterbi_datapath.system.viterbi_viterbi_datapath.cache 89165.991323                       # average ReadReq mshr miss latency
system.viterbi_viterbi_datapath.cache.ReadReq_avg_mshr_miss_latency::total 89165.991323                       # average ReadReq mshr miss latency
system.viterbi_viterbi_datapath.cache.WriteReq_avg_mshr_miss_latency::.viterbi_viterbi_datapath.system.viterbi_viterbi_datapath.cache 69864.972639                       # average WriteReq mshr miss latency
system.viterbi_viterbi_datapath.cache.WriteReq_avg_mshr_miss_latency::total 69864.972639                       # average WriteReq mshr miss latency
system.viterbi_viterbi_datapath.cache.HardPFReq_avg_mshr_miss_latency::.viterbi_viterbi_datapath.cache.prefetcher 100831.624187                       # average HardPFReq mshr miss latency
system.viterbi_viterbi_datapath.cache.HardPFReq_avg_mshr_miss_latency::total 100831.624187                       # average HardPFReq mshr miss latency
system.viterbi_viterbi_datapath.cache.demand_avg_mshr_miss_latency::.viterbi_viterbi_datapath.system.viterbi_viterbi_datapath.cache 88280.662922                       # average overall mshr miss latency
system.viterbi_viterbi_datapath.cache.demand_avg_mshr_miss_latency::total 88280.662922                       # average overall mshr miss latency
system.viterbi_viterbi_datapath.cache.overall_avg_mshr_miss_latency::.viterbi_viterbi_datapath.system.viterbi_viterbi_datapath.cache 88280.662922                       # average overall mshr miss latency
system.viterbi_viterbi_datapath.cache.overall_avg_mshr_miss_latency::.viterbi_viterbi_datapath.cache.prefetcher 100831.624187                       # average overall mshr miss latency
system.viterbi_viterbi_datapath.cache.overall_avg_mshr_miss_latency::total 98846.088951                       # average overall mshr miss latency
system.viterbi_viterbi_datapath.cache.replacements       624035                       # number of replacements

---------- End Simulation Statistics   ----------
