
---------- Begin Simulation Statistics ----------
sim_seconds                                  0.000103                       # Number of seconds simulated
sim_ticks                                   102878000                       # Number of ticks simulated
final_tick                                  102878000                       # Number of ticks from beginning of simulation (restored from checkpoints and never reset)
sim_freq                                 1000000000000                       # Frequency of simulated ticks
host_tick_rate                              106654000                       # Simulator tick rate (ticks/s)
host_mem_usage                                5001672                       # Number of bytes of host memory used
host_seconds                                     0.96                       # Real time elapsed on the host
system.voltage_domain.voltage                       1                       # Voltage in Volts
system.clk_domain.clock                          2004                       # Clock period in ticks
system.mem_ctrls.pwrStateResidencyTicks::UNDEFINED    102878000                       # Cumulative time (in ticks) in various power states
system.mem_ctrls.bytes_read::.fft_transpose_datapath.system.fft_transpose_datapath.cache         2272                       # Number of bytes read from this memory
system.mem_ctrls.bytes_read::.fft_transpose_datapath.cache.prefetcher        10848                       # Number of bytes read from this memory
system.mem_ctrls.bytes_read::total              13120                       # Number of bytes read from this memory
system.mem_ctrls.num_reads::.fft_transpose_datapath.system.fft_transpose_datapath.cache           71                       # Number of read requests responded to by this memory
system.mem_ctrls.num_reads::.fft_transpose_datapath.cache.prefetcher          339                       # Number of read requests responded to by this memory
system.mem_ctrls.num_reads::total                 410                       # Number of read requests responded to by this memory
system.mem_ctrls.bw_read::.fft_transpose_datapath.system.fft_transpose_datapath.cache     22084411                       # Total read bandwidth from this memory (bytes/s)
system.mem_ctrls.bw_read::.fft_transpose_datapath.cache.prefetcher    105445285                       # Total read bandwidth from this memory (bytes/s)
system.mem_ctrls.bw_read::total             127529695                       # Total read bandwidth from this memory (bytes/s)
system.mem_ctrls.bw_total::.fft_transpose_datapath.system.fft_transpose_datapath.cache     22084411                       # Total bandwidth to/from this memory (bytes/s)
system.mem_ctrls.bw_total::.fft_transpose_datapath.cache.prefetcher    105445285                       # Total bandwidth to/from this memory (bytes/s)
system.mem_ctrls.bw_total::total            127529695                       # Total bandwidth to/from this memory (bytes/s)
system.mem_ctrls.avgPriority_.fft_transpose_datapath.system.fft_transpose_datapath.cache::samples        71.00                       # Average QoS priority value for accepted requests
system.mem_ctrls.avgPriority_.fft_transpose_datapath.cache.prefetcher::samples       339.00                       # Average QoS priority value for accepted requests
system.mem_ctrls.priorityMinLatency      0.000000023930                       # per QoS priority minimum request to response latency (s)
system.mem_ctrls.priorityMaxLatency      0.000000513318                       # per QoS priority maximum request to response latency (s)
system.mem_ctrls.numReadWriteTurnArounds            0                       # Number of turnarounds from READ to WRITE
system.mem_ctrls.numWriteReadTurnArounds            0                       # Number of turnarounds from WRITE to READ
system.mem_ctrls.numStayReadState                 769                       # Number of times bus staying in READ state
system.mem_ctrls.numStayWriteState                  0                       # Number of times bus staying in WRITE state
system.mem_ctrls.readReqs                         410                       # Number of read requests accepted
system.mem_ctrls.writeReqs                          0                       # Number of write requests accepted
system.mem_ctrls.readBursts                       410                       # Number of DRAM read bursts, including those serviced by the write queue
system.mem_ctrls.writeBursts                        0                       # Number of DRAM write bursts, including those merged in the write queue
system.mem_ctrls.bytesReadDRAM                  26240                       # Total number of bytes read from DRAM
system.mem_ctrls.bytesReadWrQ                       0                       # Total number of bytes read from write queue
system.mem_ctrls.bytesWritten                       0                       # Total number of bytes written to DRAM
system.mem_ctrls.bytesReadSys                   13120                       # Total read bytes from the system interface side
system.mem_ctrls.bytesWrittenSys                    0                       # Total written bytes from the system interface side
system.mem_ctrls.servicedByWrQ                      0                       # Number of DRAM read bursts serviced by the write queue
system.mem_ctrls.mergedWrBursts                     0                       # Number of DRAM write bursts merged with an existing one
system.mem_ctrls.neitherReadNorWriteReqs            0                       # Number of requests that are neither read nor write
system.mem_ctrls.perBankRdBursts::0                 0                       # Per bank write bursts
system.mem_ctrls.perBankRdBursts::1                 0                       # Per bank write bursts
system.mem_ctrls.perBankRdBursts::2                 0                       # Per bank write bursts
system.mem_ctrls.perBankRdBursts::3                 0                       # Per bank write bursts
system.mem_ctrls.perBankRdBursts::4                30                       # Per bank write bursts
system.mem_ctrls.perBankRdBursts::5               252                       # Per bank write bursts
system.mem_ctrls.perBankRdBursts::6               128                       # Per bank write bursts
system.mem_ctrls.perBankRdBursts::7                 0                       # Per bank write bursts
system.mem_ctrls.perBankRdBursts::8                 0                       # Per bank write bursts
system.mem_ctrls.perBankRdBursts::9                 0                       # Per bank write bursts
system.mem_ctrls.perBankRdBursts::10                0                       # Per bank write bursts
system.mem_ctrls.perBankRdBursts::11                0                       # Per bank write bursts
system.mem_ctrls.perBankRdBursts::12                0                       # Per bank write bursts
system.mem_ctrls.perBankRdBursts::13                0                       # Per bank write bursts
system.mem_ctrls.perBankRdBursts::14                0                       # Per bank write bursts
system.mem_ctrls.perBankRdBursts::15                0                       # Per bank write bursts
system.mem_ctrls.perBankWrBursts::0                 0                       # Per bank write bursts
system.mem_ctrls.perBankWrBursts::1                 0                       # Per bank write bursts
system.mem_ctrls.perBankWrBursts::2                 0                       # Per bank write bursts
system.mem_ctrls.perBankWrBursts::3                 0                       # Per bank write bursts
system.mem_ctrls.perBankWrBursts::4                 0                       # Per bank write bursts
system.mem_ctrls.perBankWrBursts::5                 0                       # Per bank write bursts
system.mem_ctrls.perBankWrBursts::6                 0                       # Per bank write bursts
system.mem_ctrls.perBankWrBursts::7                 0                       # Per bank write bursts
system.mem_ctrls.perBankWrBursts::8                 0                       # Per bank write bursts
system.mem_ctrls.perBankWrBursts::9                 0                       # Per bank write bursts
system.mem_ctrls.perBankWrBursts::10                0                       # Per bank write bursts
system.mem_ctrls.perBankWrBursts::11                0                       # Per bank write bursts
system.mem_ctrls.perBankWrBursts::12                0                       # Per bank write bursts
system.mem_ctrls.perBankWrBursts::13                0                       # Per bank write bursts
system.mem_ctrls.perBankWrBursts::14                0                       # Per bank write bursts
system.mem_ctrls.perBankWrBursts::15                0                       # Per bank write bursts
system.mem_ctrls.numRdRetry                         0                       # Number of times read queue was full causing retry
system.mem_ctrls.numWrRetry                         0                       # Number of times write queue was full causing retry
system.mem_ctrls.totGap                      30334001                       # Total gap between requests
system.mem_ctrls.readPktSize::0                     0                       # Read request sizes (log2)
system.mem_ctrls.readPktSize::1                     0                       # Read request sizes (log2)
system.mem_ctrls.readPktSize::2                     0                       # Read request sizes (log2)
system.mem_ctrls.readPktSize::3                     0                       # Read request sizes (log2)
system.mem_ctrls.readPktSize::4                     0                       # Read request sizes (log2)
system.mem_ctrls.readPktSize::5                   410                       # Read request sizes (log2)
system.mem_ctrls.readPktSize::6                     0                       # Read request sizes (log2)
system.mem_ctrls.writePktSize::0                    0                       # Write request sizes (log2)
system.mem_ctrls.writePktSize::1                    0                       # Write request sizes (log2)
system.mem_ctrls.writePktSize::2                    0                       # Write request sizes (log2)
system.mem_ctrls.writePktSize::3                    0                       # Write request sizes (log2)
system.mem_ctrls.writePktSize::4                    0                       # Write request sizes (log2)
system.mem_ctrls.writePktSize::5                    0                       # Write request sizes (log2)
system.mem_ctrls.writePktSize::6                    0                       # Write request sizes (log2)
system.mem_ctrls.rdQLenPdf::0                      99                       # What read queue length does an incoming req see
system.mem_ctrls.rdQLenPdf::1                      92                       # What read queue length does an incoming req see
system.mem_ctrls.rdQLenPdf::2                      82                       # What read queue length does an incoming req see
system.mem_ctrls.rdQLenPdf::3                      69                       # What read queue length does an incoming req see
system.mem_ctrls.rdQLenPdf::4                       9                       # What read queue length does an incoming req see
system.mem_ctrls.rdQLenPdf::5                      16                       # What read queue length does an incoming req see
system.mem_ctrls.rdQLenPdf::6                       7                       # What read queue length does an incoming req see
system.mem_ctrls.rdQLenPdf::7                       8                       # What read queue length does an incoming req see
system.mem_ctrls.rdQLenPdf::8                       7                       # What read queue length does an incoming req see
system.mem_ctrls.rdQLenPdf::9                      10                       # What read queue length does an incoming req see
system.mem_ctrls.rdQLenPdf::10                      5                       # What read queue length does an incoming req see
system.mem_ctrls.rdQLenPdf::11                      3                       # What read queue length does an incoming req see
system.mem_ctrls.rdQLenPdf::12                      3                       # What read queue length does an incoming req see
system.mem_ctrls.rdQLenPdf::13                      0                       # What read queue length does an incoming req see
system.mem_ctrls.rdQLenPdf::14                      0                       # What read queue length does an incoming req see
system.mem_ctrls.rdQLenPdf::15                      0                       # What read queue length does an incoming req see
system.mem_ctrls.rdQLenPdf::16                      0                       # What read queue length does an incoming req see
system.mem_ctrls.rdQLenPdf::17                      0                       # What read queue length does an incoming req see
system.mem_ctrls.rdQLenPdf::18                      0                       # What read queue length does an incoming req see
system.mem_ctrls.rdQLenPdf::19                      0                       # What read queue length does an incoming req see
system.mem_ctrls.rdQLenPdf::20                      0                       # What read queue length does an incoming req see
system.mem_ctrls.rdQLenPdf::21                      0                       # What read queue length does an incoming req see
system.mem_ctrls.rdQLenPdf::22                      0                       # What read queue length does an incoming req see
system.mem_ctrls.rdQLenPdf::23                      0                       # What read queue length does an incoming req see
system.mem_ctrls.rdQLenPdf::24                      0                       # What read queue length does an incoming req see
system.mem_ctrls.rdQLenPdf::25                      0                       # What read queue length does an incoming req see
system.mem_ctrls.rdQLenPdf::26                      0                       # What read queue length does an incoming req see
system.mem_ctrls.rdQLenPdf::27                      0                       # What read queue length does an incoming req see
system.mem_ctrls.rdQLenPdf::28                      0                       # What read queue length does an incoming req see
system.mem_ctrls.rdQLenPdf::29                      0                       # What read queue length does an incoming req see
system.mem_ctrls.rdQLenPdf::30                      0                       # What read queue length does an incoming req see
system.mem_ctrls.rdQLenPdf::31                      0                       # What read queue length does an incoming req see
system.mem_ctrls.wrQLenPdf::0                       0                       # What write queue length does an incoming req see
system.mem_ctrls.wrQLenPdf::1                       0                       # What write queue length does an incoming req see
system.mem_ctrls.wrQLenPdf::2                       0                       # What write queue length does an incoming req see
system.mem_ctrls.wrQLenPdf::3                       0                       # What write queue length does an incoming req see
system.mem_ctrls.wrQLenPdf::4                       0                       # What write queue length does an incoming req see
system.mem_ctrls.wrQLenPdf::5                       0                       # What write queue length does an incoming req see
system.mem_ctrls.wrQLenPdf::6                       0                       # What write queue length does an incoming req see
system.mem_ctrls.wrQLenPdf::7                       0                       # What write queue length does an incoming req see
system.mem_ctrls.wrQLenPdf::8                       0                       # What write queue length does an incoming req see
system.mem_ctrls.wrQLenPdf::9                       0                       # What write queue length does an incoming req see
system.mem_ctrls.wrQLenPdf::10                      0                       # What write queue length does an incoming req see
system.mem_ctrls.wrQLenPdf::11                      0                       # What write queue length does an incoming req see
system.mem_ctrls.wrQLenPdf::12                      0                       # What write queue length does an incoming req see
system.mem_ctrls.wrQLenPdf::13                      0                       # What write queue length does an incoming req see
system.mem_ctrls.wrQLenPdf::14                      0                       # What write queue length does an incoming req see
system.mem_ctrls.wrQLenPdf::15                      0                       # What write queue length does an incoming req see
system.mem_ctrls.wrQLenPdf::16                      0                       # What write queue length does an incoming req see
system.mem_ctrls.wrQLenPdf::17                      0                       # What write queue length does an incoming req see
system.mem_ctrls.wrQLenPdf::18                      0                       # What write queue length does an incoming req see
system.mem_ctrls.wrQLenPdf::19                      0                       # What write queue length does an incoming req see
system.mem_ctrls.wrQLenPdf::20                      0                       # What write queue length does an incoming req see
system.mem_ctrls.wrQLenPdf::21                      0                       # What write queue length does an incoming req see
system.mem_ctrls.wrQLenPdf::22                      0                       # What write queue length does an incoming req see
system.mem_ctrls.wrQLenPdf::23                      0                       # What write queue length does an incoming req see
system.mem_ctrls.wrQLenPdf::24                      0                       # What write queue length does an incoming req see
system.mem_ctrls.wrQLenPdf::25                      0                       # What write queue length does an incoming req see
system.mem_ctrls.wrQLenPdf::26                      0                       # What write queue length does an incoming req see
system.mem_ctrls.wrQLenPdf::27                      0                       # What write queue length does an incoming req see
system.mem_ctrls.wrQLenPdf::28                      0                       # What write queue length does an incoming req see
system.mem_ctrls.wrQLenPdf::29                      0                       # What write queue length does an incoming req see
system.mem_ctrls.wrQLenPdf::30                      0                       # What write queue length does an incoming req see
system.mem_ctrls.wrQLenPdf::31                      0                       # What write queue length does an incoming req see
system.mem_ctrls.wrQLenPdf::32                      0                       # What write queue length does an incoming req see
system.mem_ctrls.wrQLenPdf::33                      0                       # What write queue length does an incoming req see
system.mem_ctrls.wrQLenPdf::34                      0                       # What write queue length does an incoming req see
system.mem_ctrls.wrQLenPdf::35                      0                       # What write queue length does an incoming req see
system.mem_ctrls.wrQLenPdf::36                      0                       # What write queue length does an incoming req see
system.mem_ctrls.wrQLenPdf::37                      0                       # What write queue length does an incoming req see
system.mem_ctrls.wrQLenPdf::38                      0                       # What write queue length does an incoming req see
system.mem_ctrls.wrQLenPdf::39                      0                       # What write queue length does an incoming req see
system.mem_ctrls.wrQLenPdf::40                      0                       # What write queue length does an incoming req see
system.mem_ctrls.wrQLenPdf::41                      0                       # What write queue length does an incoming req see
system.mem_ctrls.wrQLenPdf::42                      0                       # What write queue length does an incoming req see
system.mem_ctrls.wrQLenPdf::43                      0                       # What write queue length does an incoming req see
system.mem_ctrls.wrQLenPdf::44                      0                       # What write queue length does an incoming req see
system.mem_ctrls.wrQLenPdf::45                      0                       # What write queue length does an incoming req see
system.mem_ctrls.wrQLenPdf::46                      0                       # What write queue length does an incoming req see
system.mem_ctrls.wrQLenPdf::47                      0                       # What write queue length does an incoming req see
system.mem_ctrls.wrQLenPdf::48                      0                       # What write queue length does an incoming req see
system.mem_ctrls.wrQLenPdf::49                      0                       # What write queue length does an incoming req see
system.mem_ctrls.wrQLenPdf::50                      0                       # What write queue length does an incoming req see
system.mem_ctrls.wrQLenPdf::51                      0                       # What write queue length does an incoming req see
system.mem_ctrls.wrQLenPdf::52                      0                       # What write queue length does an incoming req see
system.mem_ctrls.wrQLenPdf::53                      0                       # What write queue length does an incoming req see
system.mem_ctrls.wrQLenPdf::54                      0                       # What write queue length does an incoming req see
system.mem_ctrls.wrQLenPdf::55                      0                       # What write queue length does an incoming req see
system.mem_ctrls.wrQLenPdf::56                      0                       # What write queue length does an incoming req see
system.mem_ctrls.wrQLenPdf::57                      0                       # What write queue length does an incoming req see
system.mem_ctrls.wrQLenPdf::58                      0                       # What write queue length does an incoming req see
system.mem_ctrls.wrQLenPdf::59                      0                       # What write queue length does an incoming req see
system.mem_ctrls.wrQLenPdf::60                      0                       # What write queue length does an incoming req see
system.mem_ctrls.wrQLenPdf::61                      0                       # What write queue length does an incoming req see
system.mem_ctrls.wrQLenPdf::62                      0                       # What write queue length does an incoming req see
system.mem_ctrls.wrQLenPdf::63                      0                       # What write queue length does an incoming req see
system.mem_ctrls.bytesPerActivate::samples           30                       # Bytes accessed per row activation
system.mem_ctrls.bytesPerActivate::mean    874.666667                       # Bytes accessed per row activation
system.mem_ctrls.bytesPerActivate::gmean   778.397736                       # Bytes accessed per row activation
system.mem_ctrls.bytesPerActivate::stdev   286.381146                       # Bytes accessed per row activation
system.mem_ctrls.bytesPerActivate::0-127            1      3.33%      3.33% # Bytes accessed per row activation
system.mem_ctrls.bytesPerActivate::128-255            1      3.33%      6.67% # Bytes accessed per row activation
system.mem_ctrls.bytesPerActivate::256-383            1      3.33%     10.00% # Bytes accessed per row activation
system.mem_ctrls.bytesPerActivate::384-511            1      3.33%     13.33% # Bytes accessed per row activation
system.mem_ctrls.bytesPerActivate::512-639            3     10.00%     23.33% # Bytes accessed per row activation
system.mem_ctrls.bytesPerActivate::896-1023            1      3.33%     26.67% # Bytes accessed per row activation
system.mem_ctrls.bytesPerActivate::1024-1151           22     73.33%    100.00% # Bytes accessed per row activation
system.mem_ctrls.bytesPerActivate::total           30                       # Bytes accessed per row activation
system.mem_ctrls.masterReadBytes::.fft_transpose_datapath.system.fft_transpose_datapath.cache         2272                       # Per-master bytes read from memory
system.mem_ctrls.masterReadBytes::.fft_transpose_datapath.cache.prefetcher        10848                       # Per-master bytes read from memory
system.mem_ctrls.masterReadRate::.fft_transpose_datapath.system.fft_transpose_datapath.cache 22084410.661171484739                       # Per-master bytes read from memory rate (Bytes/sec)
system.mem_ctrls.masterReadRate::.fft_transpose_datapath.cache.prefetcher 105445284.706156805158                       # Per-master bytes read from memory rate (Bytes/sec)
system.mem_ctrls.masterReadAccesses::.fft_transpose_datapath.system.fft_transpose_datapath.cache           71                       # Per-master read serviced memory accesses
system.mem_ctrls.masterReadAccesses::.fft_transpose_datapath.cache.prefetcher          339                       # Per-master read serviced memory accesses
system.mem_ctrls.masterReadTotalLat::.fft_transpose_datapath.system.fft_transpose_datapath.cache      2265518                       # Per-master read total memory access latency
system.mem_ctrls.masterReadTotalLat::.fft_transpose_datapath.cache.prefetcher     12912545                       # Per-master read total memory access latency
system.mem_ctrls.masterReadAvgLat::.fft_transpose_datapath.system.fft_transpose_datapath.cache     31908.70                       # Per-master read average memory access latency
system.mem_ctrls.masterReadAvgLat::.fft_transpose_datapath.cache.prefetcher     38090.10                       # Per-master read average memory access latency
system.mem_ctrls.totQLat                      7490563                       # Total ticks spent queuing
system.mem_ctrls.totMemAccLat                15178063                       # Total ticks spent from burst creation until serviced by the DRAM
system.mem_ctrls.totBusLat                    2050000                       # Total ticks spent in databus transfers
system.mem_ctrls.avgQLat                     18269.67                       # Average queueing delay per DRAM burst
system.mem_ctrls.avgBusLat                    5000.00                       # Average bus latency per DRAM burst
system.mem_ctrls.avgMemAccLat                37019.67                       # Average memory access latency per DRAM burst
system.mem_ctrls.avgRdBW                       255.06                       # Average DRAM read bandwidth in MiByte/s
system.mem_ctrls.avgWrBW                         0.00                       # Average achieved write bandwidth in MiByte/s
system.mem_ctrls.avgRdBWSys                    127.53                       # Average system read bandwidth in MiByte/s
system.mem_ctrls.avgWrBWSys                      0.00                       # Average system write bandwidth in MiByte/s
system.mem_ctrls.peakBW                      12800.00                       # Theoretical peak bandwidth in MiByte/s
system.mem_ctrls.busUtil                         1.99                       # Data bus utilization in percentage
system.mem_ctrls.busUtilRead                     1.99                       # Data bus utilization in percentage for reads
system.mem_ctrls.busUtilWrite                    0.00                       # Data bus utilization in percentage for writes
system.mem_ctrls.avgRdQLen                       1.69                       # Average read queue length when enqueuing
system.mem_ctrls.avgWrQLen                       0.00                       # Average write queue length when enqueuing
system.mem_ctrls.readRowHits                      380                       # Number of row buffer hits during reads
system.mem_ctrls.writeRowHits                       0                       # Number of row buffer hits during writes
system.mem_ctrls.readRowHitRate                 92.68                       # Row buffer hit rate for reads
system.mem_ctrls.writeRowHitRate                  nan                       # Row buffer hit rate for writes
system.mem_ctrls.avgGap                      73985.37                       # Average gap between requests
system.mem_ctrls.pageHitRate                    92.68                       # Row buffer hit rate, read and write combined
system.mem_ctrls_0.actEnergy                   214200                       # Energy for activate commands per rank (pJ)
system.mem_ctrls_0.preEnergy                   113850                       # Energy for precharge commands per rank (pJ)
system.mem_ctrls_0.readEnergy                 2927400                       # Energy for read commands per rank (pJ)
system.mem_ctrls_0.writeEnergy                      0                       # Energy for write commands per rank (pJ)
system.mem_ctrls_0.refreshEnergy         2458560.000000                       # Energy for refresh commands per rank (pJ)
system.mem_ctrls_0.actBackEnergy              2694960                       # Energy for active background per rank (pJ)
system.mem_ctrls_0.preBackEnergy               166560                       # Energy for precharge background per rank (pJ)
system.mem_ctrls_0.actPowerDownEnergy        11103030                       # Energy for active power-down per rank (pJ)
system.mem_ctrls_0.prePowerDownEnergy         3166080                       # Energy for precharge power-down per rank (pJ)
system.mem_ctrls_0.selfRefreshEnergy         15898140                       # Energy for self refresh per rank (pJ)
system.mem_ctrls_0.totalEnergy               38742780                       # Total energy per rank (pJ)
system.mem_ctrls_0.averagePower            376.589553                       # Core power per rank (mW)
system.mem_ctrls_0.totalIdleTime             32600251                       # Total Idle time Per DRAM Rank
system.mem_ctrls_0.memoryStateTime::IDLE       266000                       # Time in different power states
system.mem_ctrls_0.memoryStateTime::REF       1040000                       # Time in different power states
system.mem_ctrls_0.memoryStateTime::SREF     63940750                       # Time in different power states
system.mem_ctrls_0.memoryStateTime::PRE_PDN      8246000                       # Time in different power states
system.mem_ctrls_0.memoryStateTime::ACT       5030999                       # Time in different power states
system.mem_ctrls_0.memoryStateTime::ACT_PDN     24354251                       # Time in different power states
system.mem_ctrls_1.actEnergy                        0                       # Energy for activate commands per rank (pJ)
system.mem_ctrls_1.preEnergy                        0                       # Energy for precharge commands per rank (pJ)
system.mem_ctrls_1.readEnergy                       0                       # Energy for read commands per rank (pJ)
system.mem_ctrls_1.writeEnergy                      0                       # Energy for write commands per rank (pJ)
system.mem_ctrls_1.refreshEnergy         614640.000000                       # Energy for refresh commands per rank (pJ)
system.mem_ctrls_1.actBackEnergy               112290                       # Energy for active background per rank (pJ)
system.mem_ctrls_1.preBackEnergy              2997600                       # Energy for precharge background per rank (pJ)
system.mem_ctrls_1.actPowerDownEnergy               0                       # Energy for active power-down per rank (pJ)
system.mem_ctrls_1.prePowerDownEnergy         2890080                       # Energy for precharge power-down per rank (pJ)
system.mem_ctrls_1.selfRefreshEnergy         21504240                       # Energy for self refresh per rank (pJ)
system.mem_ctrls_1.totalEnergy               28118850                       # Total energy per rank (pJ)
system.mem_ctrls_1.averagePower            273.322285                       # Core power per rank (mW)
system.mem_ctrls_1.totalIdleTime              7526250                       # Total Idle time Per DRAM Rank
system.mem_ctrls_1.memoryStateTime::IDLE      7792250                       # Time in different power states
system.mem_ctrls_1.memoryStateTime::REF        260000                       # Time in different power states
system.mem_ctrls_1.memoryStateTime::SREF     87299500                       # Time in different power states
system.mem_ctrls_1.memoryStateTime::PRE_PDN      7526250                       # Time in different power states
system.mem_ctrls_1.memoryStateTime::ACT             0                       # Time in different power states
system.mem_ctrls_1.memoryStateTime::ACT_PDN            0                       # Time in different power states
system.pwrStateResidencyTicks::UNDEFINED    102878000                       # Cumulative time (in ticks) in various power states
system.cpu_voltage_domain.voltage                   1                       # Voltage in Volts
system.cpu_clk_domain.clock                       500                       # Clock period in ticks
system.fft_transpose_datapath.clk_domain.clock         2000                       # Clock period in ticks
system.fft_transpose_datapath.pwrStateResidencyTicks::UNDEFINED    102878000                       # Cumulative time (in ticks) in various power states
system.fft_transpose_datapath.cache_queue_reads            0                       # Number of reads to the fft_transpose_datapath.cache_queue
system.fft_transpose_datapath.cache_queue_writes            0                       # Number of writes to the fft_transpose_datapath.cache_queue
system.fft_transpose_datapath.total_dcache_loads         3968                       # Total number of dcache loads
system.fft_transpose_datapath.total_dcache_stores         6144                       # Total number of dcache stores.
system.fft_transpose_datapath.dcache_latency::samples        10112                       # Histogram of dcache total access latency
system.fft_transpose_datapath.dcache_latency::mean  2734.553105                       # Histogram of dcache total access latency
system.fft_transpose_datapath.dcache_latency::gmean  2076.250247                       # Histogram of dcache total access latency
system.fft_transpose_datapath.dcache_latency::stdev  7847.861029                       # Histogram of dcache total access latency
system.fft_transpose_datapath.dcache_latency::0-16383        10005     98.94%     98.94% # Histogram of dcache total access latency
system.fft_transpose_datapath.dcache_latency::16384-32767           16      0.16%     99.10% # Histogram of dcache total access latency
system.fft_transpose_datapath.dcache_latency::32768-49151            1      0.01%     99.11% # Histogram of dcache total access latency
system.fft_transpose_datapath.dcache_latency::49152-65535            1      0.01%     99.12% # Histogram of dcache total access latency
system.fft_transpose_datapath.dcache_latency::65536-81919           72      0.71%     99.83% # Histogram of dcache total access latency
system.fft_transpose_datapath.dcache_latency::81920-98303           11      0.11%     99.94% # Histogram of dcache total access latency
system.fft_transpose_datapath.dcache_latency::98304-114687            4      0.04%     99.98% # Histogram of dcache total access latency
system.fft_transpose_datapath.dcache_latency::114688-131071            1      0.01%     99.99% # Histogram of dcache total access latency
system.fft_transpose_datapath.dcache_latency::131072-147455            0      0.00%     99.99% # Histogram of dcache total access latency
system.fft_transpose_datapath.dcache_latency::147456-163839            0      0.00%     99.99% # Histogram of dcache total access latency
system.fft_transpose_datapath.dcache_latency::163840-180223            0      0.00%     99.99% # Histogram of dcache total access latency
system.fft_transpose_datapath.dcache_latency::180224-196607            0      0.00%     99.99% # Histogram of dcache total access latency
system.fft_transpose_datapath.dcache_latency::196608-212991            0      0.00%     99.99% # Histogram of dcache total access latency
system.fft_transpose_datapath.dcache_latency::212992-229375            0      0.00%     99.99% # Histogram of dcache total access latency
system.fft_transpose_datapath.dcache_latency::229376-245759            0      0.00%     99.99% # Histogram of dcache total access latency
system.fft_transpose_datapath.dcache_latency::245760-262143            0      0.00%     99.99% # Histogram of dcache total access latency
system.fft_transpose_datapath.dcache_latency::262144-278527            0      0.00%     99.99% # Histogram of dcache total access latency
system.fft_transpose_datapath.dcache_latency::278528-294911            0      0.00%     99.99% # Histogram of dcache total access latency
system.fft_transpose_datapath.dcache_latency::294912-311295            0      0.00%     99.99% # Histogram of dcache total access latency
system.fft_transpose_datapath.dcache_latency::311296-327679            1      0.01%    100.00% # Histogram of dcache total access latency
system.fft_transpose_datapath.dcache_latency::327680-344063            0      0.00%    100.00% # Histogram of dcache total access latency
system.fft_transpose_datapath.dcache_latency::344064-360447            0      0.00%    100.00% # Histogram of dcache total access latency
system.fft_transpose_datapath.dcache_latency::360448-376831            0      0.00%    100.00% # Histogram of dcache total access latency
system.fft_transpose_datapath.dcache_latency::376832-393215            0      0.00%    100.00% # Histogram of dcache total access latency
system.fft_transpose_datapath.dcache_latency::393216-409599            0      0.00%    100.00% # Histogram of dcache total access latency
system.fft_transpose_datapath.dcache_latency::409600-425983            0      0.00%    100.00% # Histogram of dcache total access latency
system.fft_transpose_datapath.dcache_latency::425984-442367            0      0.00%    100.00% # Histogram of dcache total access latency
system.fft_transpose_datapath.dcache_latency::442368-458751            0      0.00%    100.00% # Histogram of dcache total access latency
system.fft_transpose_datapath.dcache_latency::458752-475135            0      0.00%    100.00% # Histogram of dcache total access latency
system.fft_transpose_datapath.dcache_latency::475136-491519            0      0.00%    100.00% # Histogram of dcache total access latency
system.fft_transpose_datapath.dcache_latency::total        10112                       # Histogram of dcache total access latency
system.fft_transpose_datapath.dcache_queue_time::samples        10112                       # Histogram of time dcache request spent in queue
system.fft_transpose_datapath.dcache_queue_time::mean 42986.748418                       # Histogram of time dcache request spent in queue
system.fft_transpose_datapath.dcache_queue_time::gmean 42956.469687                       # Histogram of time dcache request spent in queue
system.fft_transpose_datapath.dcache_queue_time::stdev  1753.423944                       # Histogram of time dcache request spent in queue
system.fft_transpose_datapath.dcache_queue_time::0-4095            0      0.00%      0.00% # Histogram of time dcache request spent in queue
system.fft_transpose_datapath.dcache_queue_time::4096-8191            0      0.00%      0.00% # Histogram of time dcache request spent in queue
system.fft_transpose_datapath.dcache_queue_time::8192-12287            0      0.00%      0.00% # Histogram of time dcache request spent in queue
system.fft_transpose_datapath.dcache_queue_time::12288-16383            0      0.00%      0.00% # Histogram of time dcache request spent in queue
system.fft_transpose_datapath.dcache_queue_time::16384-20479            0      0.00%      0.00% # Histogram of time dcache request spent in queue
system.fft_transpose_datapath.dcache_queue_time::20480-24575            0      0.00%      0.00% # Histogram of time dcache request spent in queue
system.fft_transpose_datapath.dcache_queue_time::24576-28671            0      0.00%      0.00% # Histogram of time dcache request spent in queue
system.fft_transpose_datapath.dcache_queue_time::28672-32767            0      0.00%      0.00% # Histogram of time dcache request spent in queue
system.fft_transpose_datapath.dcache_queue_time::32768-36863            0      0.00%      0.00% # Histogram of time dcache request spent in queue
system.fft_transpose_datapath.dcache_queue_time::36864-40959            0      0.00%      0.00% # Histogram of time dcache request spent in queue
system.fft_transpose_datapath.dcache_queue_time::40960-45055         9340     92.37%     92.37% # Histogram of time dcache request spent in queue
system.fft_transpose_datapath.dcache_queue_time::45056-49151          766      7.58%     99.94% # Histogram of time dcache request spent in queue
system.fft_transpose_datapath.dcache_queue_time::49152-53247            0      0.00%     99.94% # Histogram of time dcache request spent in queue
system.fft_transpose_datapath.dcache_queue_time::53248-57343            0      0.00%     99.94% # Histogram of time dcache request spent in queue
system.fft_transpose_datapath.dcache_queue_time::57344-61439            0      0.00%     99.94% # Histogram of time dcache request spent in queue
system.fft_transpose_datapath.dcache_queue_time::61440-65535            0      0.00%     99.94% # Histogram of time dcache request spent in queue
system.fft_transpose_datapath.dcache_queue_time::65536-69631            0      0.00%     99.94% # Histogram of time dcache request spent in queue
system.fft_transpose_datapath.dcache_queue_time::69632-73727            0      0.00%     99.94% # Histogram of time dcache request spent in queue
system.fft_transpose_datapath.dcache_queue_time::73728-77823            0      0.00%     99.94% # Histogram of time dcache request spent in queue
system.fft_transpose_datapath.dcache_queue_time::77824-81919            0      0.00%     99.94% # Histogram of time dcache request spent in queue
system.fft_transpose_datapath.dcache_queue_time::81920-86015            4      0.04%     99.98% # Histogram of time dcache request spent in queue
system.fft_transpose_datapath.dcache_queue_time::86016-90111            2      0.02%    100.00% # Histogram of time dcache request spent in queue
system.fft_transpose_datapath.dcache_queue_time::90112-94207            0      0.00%    100.00% # Histogram of time dcache request spent in queue
system.fft_transpose_datapath.dcache_queue_time::94208-98303            0      0.00%    100.00% # Histogram of time dcache request spent in queue
system.fft_transpose_datapath.dcache_queue_time::98304-102399            0      0.00%    100.00% # Histogram of time dcache request spent in queue
system.fft_transpose_datapath.dcache_queue_time::102400-106495            0      0.00%    100.00% # Histogram of time dcache request spent in queue
system.fft_transpose_datapath.dcache_queue_time::106496-110591            0      0.00%    100.00% # Histogram of time dcache request spent in queue
system.fft_transpose_datapath.dcache_queue_time::110592-114687            0      0.00%    100.00% # Histogram of time dcache request spent in queue
system.fft_transpose_datapath.dcache_queue_time::114688-118783            0      0.00%    100.00% # Histogram of time dcache request spent in queue
system.fft_transpose_datapath.dcache_queue_time::118784-122879            0      0.00%    100.00% # Histogram of time dcache request spent in queue
system.fft_transpose_datapath.dcache_queue_time::total        10112                       # Histogram of time dcache request spent in queue
system.fft_transpose_datapath.total_acp_loads            0                       # Total number of ACP loads
system.fft_transpose_datapath.total_acp_stores            0                       # Total number of ACP stores.
system.fft_transpose_datapath.acp_latency::samples            0                       # Histogram of ACP transaction total latency
system.fft_transpose_datapath.acp_latency::mean          nan                       # Histogram of ACP transaction total latency
system.fft_transpose_datapath.acp_latency::gmean          nan                       # Histogram of ACP transaction total latency
system.fft_transpose_datapath.acp_latency::stdev          nan                       # Histogram of ACP transaction total latency
system.fft_transpose_datapath.acp_latency::0            0                       # Histogram of ACP transaction total latency
system.fft_transpose_datapath.acp_latency::1            0                       # Histogram of ACP transaction total latency
system.fft_transpose_datapath.acp_latency::2            0                       # Histogram of ACP transaction total latency
system.fft_transpose_datapath.acp_latency::3            0                       # Histogram of ACP transaction total latency
system.fft_transpose_datapath.acp_latency::4            0                       # Histogram of ACP transaction total latency
system.fft_transpose_datapath.acp_latency::5            0                       # Histogram of ACP transaction total latency
system.fft_transpose_datapath.acp_latency::6            0                       # Histogram of ACP transaction total latency
system.fft_transpose_datapath.acp_latency::7            0                       # Histogram of ACP transaction total latency
system.fft_transpose_datapath.acp_latency::8            0                       # Histogram of ACP transaction total latency
system.fft_transpose_datapath.acp_latency::9            0                       # Histogram of ACP transaction total latency
system.fft_transpose_datapath.acp_latency::10            0                       # Histogram of ACP transaction total latency
system.fft_transpose_datapath.acp_latency::11            0                       # Histogram of ACP transaction total latency
system.fft_transpose_datapath.acp_latency::12            0                       # Histogram of ACP transaction total latency
system.fft_transpose_datapath.acp_latency::13            0                       # Histogram of ACP transaction total latency
system.fft_transpose_datapath.acp_latency::14            0                       # Histogram of ACP transaction total latency
system.fft_transpose_datapath.acp_latency::15            0                       # Histogram of ACP transaction total latency
system.fft_transpose_datapath.acp_latency::16            0                       # Histogram of ACP transaction total latency
system.fft_transpose_datapath.acp_latency::17            0                       # Histogram of ACP transaction total latency
system.fft_transpose_datapath.acp_latency::18            0                       # Histogram of ACP transaction total latency
system.fft_transpose_datapath.acp_latency::19            0                       # Histogram of ACP transaction total latency
system.fft_transpose_datapath.acp_latency::20            0                       # Histogram of ACP transaction total latency
system.fft_transpose_datapath.acp_latency::21            0                       # Histogram of ACP transaction total latency
system.fft_transpose_datapath.acp_latency::22            0                       # Histogram of ACP transaction total latency
system.fft_transpose_datapath.acp_latency::23            0                       # Histogram of ACP transaction total latency
system.fft_transpose_datapath.acp_latency::24            0                       # Histogram of ACP transaction total latency
system.fft_transpose_datapath.acp_latency::25            0                       # Histogram of ACP transaction total latency
system.fft_transpose_datapath.acp_latency::26            0                       # Histogram of ACP transaction total latency
system.fft_transpose_datapath.acp_latency::27            0                       # Histogram of ACP transaction total latency
system.fft_transpose_datapath.acp_latency::28            0                       # Histogram of ACP transaction total latency
system.fft_transpose_datapath.acp_latency::29            0                       # Histogram of ACP transaction total latency
system.fft_transpose_datapath.acp_latency::total            0                       # Histogram of ACP transaction total latency
system.fft_transpose_datapath.acp_queue_time::samples            0                       # Histogram of time ACP request spent in queue
system.fft_transpose_datapath.acp_queue_time::mean          nan                       # Histogram of time ACP request spent in queue
system.fft_transpose_datapath.acp_queue_time::gmean          nan                       # Histogram of time ACP request spent in queue
system.fft_transpose_datapath.acp_queue_time::stdev          nan                       # Histogram of time ACP request spent in queue
system.fft_transpose_datapath.acp_queue_time::0            0                       # Histogram of time ACP request spent in queue
system.fft_transpose_datapath.acp_queue_time::1            0                       # Histogram of time ACP request spent in queue
system.fft_transpose_datapath.acp_queue_time::2            0                       # Histogram of time ACP request spent in queue
system.fft_transpose_datapath.acp_queue_time::3            0                       # Histogram of time ACP request spent in queue
system.fft_transpose_datapath.acp_queue_time::4            0                       # Histogram of time ACP request spent in queue
system.fft_transpose_datapath.acp_queue_time::5            0                       # Histogram of time ACP request spent in queue
system.fft_transpose_datapath.acp_queue_time::6            0                       # Histogram of time ACP request spent in queue
system.fft_transpose_datapath.acp_queue_time::7            0                       # Histogram of time ACP request spent in queue
system.fft_transpose_datapath.acp_queue_time::8            0                       # Histogram of time ACP request spent in queue
system.fft_transpose_datapath.acp_queue_time::9            0                       # Histogram of time ACP request spent in queue
system.fft_transpose_datapath.acp_queue_time::10            0                       # Histogram of time ACP request spent in queue
system.fft_transpose_datapath.acp_queue_time::11            0                       # Histogram of time ACP request spent in queue
system.fft_transpose_datapath.acp_queue_time::12            0                       # Histogram of time ACP request spent in queue
system.fft_transpose_datapath.acp_queue_time::13            0                       # Histogram of time ACP request spent in queue
system.fft_transpose_datapath.acp_queue_time::14            0                       # Histogram of time ACP request spent in queue
system.fft_transpose_datapath.acp_queue_time::15            0                       # Histogram of time ACP request spent in queue
system.fft_transpose_datapath.acp_queue_time::16            0                       # Histogram of time ACP request spent in queue
system.fft_transpose_datapath.acp_queue_time::17            0                       # Histogram of time ACP request spent in queue
system.fft_transpose_datapath.acp_queue_time::18            0                       # Histogram of time ACP request spent in queue
system.fft_transpose_datapath.acp_queue_time::19            0                       # Histogram of time ACP request spent in queue
system.fft_transpose_datapath.acp_queue_time::20            0                       # Histogram of time ACP request spent in queue
system.fft_transpose_datapath.acp_queue_time::21            0                       # Histogram of time ACP request spent in queue
system.fft_transpose_datapath.acp_queue_time::22            0                       # Histogram of time ACP request spent in queue
system.fft_transpose_datapath.acp_queue_time::23            0                       # Histogram of time ACP request spent in queue
system.fft_transpose_datapath.acp_queue_time::24            0                       # Histogram of time ACP request spent in queue
system.fft_transpose_datapath.acp_queue_time::25            0                       # Histogram of time ACP request spent in queue
system.fft_transpose_datapath.acp_queue_time::26            0                       # Histogram of time ACP request spent in queue
system.fft_transpose_datapath.acp_queue_time::27            0                       # Histogram of time ACP request spent in queue
system.fft_transpose_datapath.acp_queue_time::28            0                       # Histogram of time ACP request spent in queue
system.fft_transpose_datapath.acp_queue_time::29            0                       # Histogram of time ACP request spent in queue
system.fft_transpose_datapath.acp_queue_time::total            0                       # Histogram of time ACP request spent in queue
system.fft_transpose_datapath.dma_setup_cycles           15                       # Total number of cycles spent on setting up DMA transfers.
system.fft_transpose_datapath.sim_cycles        51424                       # Total accelerator cycles
system.fft_transpose_datapath.tlb.hits          10112                       # TLB hits
system.fft_transpose_datapath.tlb.misses            6                       # TLB misses
system.fft_transpose_datapath.tlb.reads         10118                       # TLB reads
system.fft_transpose_datapath.tlb.updates            4                       # TLB updates
system.fft_transpose_datapath.tlb.hitRate     0.999407                       # TLB hit rate
system.fft_transpose_datapath.cache.prefetcher.pwrStateResidencyTicks::UNDEFINED    102878000                       # Cumulative time (in ticks) in various power states
system.fft_transpose_datapath.cache.prefetcher.num_hwpf_issued        32913                       # number of hwpf issued
system.fft_transpose_datapath.cache.prefetcher.pfIdentified        62846                       # number of prefetch candidates identified
system.fft_transpose_datapath.cache.prefetcher.pfBufferHit        21076                       # number of redundant prefetches already in prefetch queue
system.fft_transpose_datapath.cache.prefetcher.pfInCache            0                       # number of redundant prefetches already in cache/mshr dropped
system.fft_transpose_datapath.cache.prefetcher.pfRemovedFull         7662                       # number of prefetches dropped due to prefetch queue size
system.fft_transpose_datapath.cache.prefetcher.pfSpanPage         5138                       # number of prefetches not generated due to page crossing
system.fft_transpose_datapath.cache.tags.pwrStateResidencyTicks::UNDEFINED    102878000                       # Cumulative time (in ticks) in various power states
system.fft_transpose_datapath.cache.tags.tagsinuse   368.211470                       # Cycle average of tags in use
system.fft_transpose_datapath.cache.tags.total_refs        10419                       # Total number of references to valid blocks.
system.fft_transpose_datapath.cache.tags.sampled_refs          414                       # Sample count of references to valid blocks.
system.fft_transpose_datapath.cache.tags.avg_refs    25.166667                       # Average number of references to valid blocks.
system.fft_transpose_datapath.cache.tags.warmup_cycle       280560                       # Cycle when the warmup percentage was hit.
system.fft_transpose_datapath.cache.tags.occ_blocks::.fft_transpose_datapath.system.fft_transpose_datapath.cache    63.657817                       # Average occupied blocks per requestor
system.fft_transpose_datapath.cache.tags.occ_blocks::.fft_transpose_datapath.cache.prefetcher   304.553652                       # Average occupied blocks per requestor
system.fft_transpose_datapath.cache.tags.occ_percent::.fft_transpose_datapath.system.fft_transpose_datapath.cache     0.124332                       # Average percentage of cache occupancy
system.fft_transpose_datapath.cache.tags.occ_percent::.fft_transpose_datapath.cache.prefetcher     0.594831                       # Average percentage of cache occupancy
system.fft_transpose_datapath.cache.tags.occ_percent::total     0.719163                       # Average percentage of cache occupancy
system.fft_transpose_datapath.cache.tags.occ_task_id_blocks::1022          339                       # Occupied blocks per task id
system.fft_transpose_datapath.cache.tags.occ_task_id_blocks::1024           75                       # Occupied blocks per task id
system.fft_transpose_datapath.cache.tags.age_task_id_blocks_1022::1          285                       # Occupied blocks per task id
system.fft_transpose_datapath.cache.tags.age_task_id_blocks_1022::2           54                       # Occupied blocks per task id
system.fft_transpose_datapath.cache.tags.age_task_id_blocks_1024::1           59                       # Occupied blocks per task id
system.fft_transpose_datapath.cache.tags.age_task_id_blocks_1024::2           16                       # Occupied blocks per task id
system.fft_transpose_datapath.cache.tags.occ_task_id_percent::1022     0.662109                       # Percentage of cache occupancy per task id
system.fft_transpose_datapath.cache.tags.occ_task_id_percent::1024     0.146484                       # Percentage of cache occupancy per task id
system.fft_transpose_datapath.cache.tags.tag_accesses        40862                       # Number of tag accesses
system.fft_transpose_datapath.cache.tags.data_accesses        40862                       # Number of data accesses
system.fft_transpose_datapath.cache.pwrStateResidencyTicks::UNDEFINED    102878000                       # Cumulative time (in ticks) in various power states
system.fft_transpose_datapath.cache.ReadReq_hits::.fft_transpose_datapath.system.fft_transpose_datapath.cache         3968                       # number of ReadReq hits
system.fft_transpose_datapath.cache.ReadReq_hits::total         3968                       # number of ReadReq hits
system.fft_transpose_datapath.cache.WriteReq_hits::.fft_transpose_datapath.system.fft_transpose_datapath.cache         6037                       # number of WriteReq hits
system.fft_transpose_datapath.cache.WriteReq_hits::total         6037                       # number of WriteReq hits
system.fft_transpose_datapath.cache.demand_hits::.fft_transpose_datapath.system.fft_transpose_datapath.cache        10005                       # number of demand (read+write) hits
system.fft_transpose_datapath.cache.demand_hits::total        10005                       # number of demand (read+write) hits
system.fft_transpose_datapath.cache.overall_hits::.fft_transpose_datapath.system.fft_transpose_datapath.cache        10005                       # number of overall hits
system.fft_transpose_datapath.cache.overall_hits::total        10005                       # number of overall hits
system.fft_transpose_datapath.cache.WriteReq_misses::.fft_transpose_datapath.system.fft_transpose_datapath.cache          107                       # number of WriteReq misses
system.fft_transpose_datapath.cache.WriteReq_misses::total          107                       # number of WriteReq misses
system.fft_transpose_datapath.cache.demand_misses::.fft_transpose_datapath.system.fft_transpose_datapath.cache          107                       # number of demand (read+write) misses
system.fft_transpose_datapath.cache.demand_misses::total          107                       # number of demand (read+write) misses
system.fft_transpose_datapath.cache.overall_misses::.fft_transpose_datapath.system.fft_transpose_datapath.cache          107                       # number of overall misses
system.fft_transpose_datapath.cache.overall_misses::total          107                       # number of overall misses
system.fft_transpose_datapath.cache.WriteReq_miss_latency::.fft_transpose_datapath.system.fft_transpose_datapath.cache      7628160                       # number of WriteReq miss cycles
system.fft_transpose_datapath.cache.WriteReq_miss_latency::total      7628160                       # number of WriteReq miss cycles
system.fft_transpose_datapath.cache.demand_miss_latency::.fft_transpose_datapath.system.fft_transpose_datapath.cache      7628160                       # number of demand (read+write) miss cycles
system.fft_transpose_datapath.cache.demand_miss_latency::total      7628160                       # number of demand (read+write) miss cycles
system.fft_transpose_datapath.cache.overall_miss_latency::.fft_transpose_datapath.system.fft_transpose_datapath.cache      7628160                       # number of overall miss cycles
system.fft_transpose_datapath.cache.overall_miss_latency::total      7628160                       # number of overall miss cycles
system.fft_transpose_datapath.cache.ReadReq_accesses::.fft_transpose_datapath.system.fft_transpose_datapath.cache         3968                       # number of ReadReq accesses(hits+misses)
system.fft_transpose_datapath.cache.ReadReq_accesses::total         3968                       # number of ReadReq accesses(hits+misses)
system.fft_transpose_datapath.cache.WriteReq_accesses::.fft_transpose_datapath.system.fft_transpose_datapath.cache         6144                       # number of WriteReq accesses(hits+misses)
system.fft_transpose_datapath.cache.WriteReq_accesses::total         6144                       # number of WriteReq accesses(hits+misses)
system.fft_transpose_datapath.cache.demand_accesses::.fft_transpose_datapath.system.fft_transpose_datapath.cache        10112                       # number of demand (read+write) accesses
system.fft_transpose_datapath.cache.demand_accesses::total        10112                       # number of demand (read+write) accesses
system.fft_transpose_datapath.cache.overall_accesses::.fft_transpose_datapath.system.fft_transpose_datapath.cache        10112                       # number of overall (read+write) accesses
system.fft_transpose_datapath.cache.overall_accesses::total        10112                       # number of overall (read+write) accesses
system.fft_transpose_datapath.cache.WriteReq_miss_rate::.fft_transpose_datapath.system.fft_transpose_datapath.cache     0.017415                       # miss rate for WriteReq accesses
system.fft_transpose_datapath.cache.WriteReq_miss_rate::total     0.017415                       # miss rate for WriteReq accesses
system.fft_transpose_datapath.cache.demand_miss_rate::.fft_transpose_datapath.system.fft_transpose_datapath.cache     0.010581                       # miss rate for demand accesses
system.fft_transpose_datapath.cache.demand_miss_rate::total     0.010581                       # miss rate for demand accesses
system.fft_transpose_datapath.cache.overall_miss_rate::.fft_transpose_datapath.system.fft_transpose_datapath.cache     0.010581                       # miss rate for overall accesses
system.fft_transpose_datapath.cache.overall_miss_rate::total     0.010581                       # miss rate for overall accesses
system.fft_transpose_datapath.cache.WriteReq_avg_miss_latency::.fft_transpose_datapath.system.fft_transpose_datapath.cache 71291.214953                       # average WriteReq miss latency
system.fft_transpose_datapath.cache.WriteReq_avg_miss_latency::total 71291.214953                       # average WriteReq miss latency
system.fft_transpose_datapath.cache.demand_avg_miss_latency::.fft_transpose_datapath.system.fft_transpose_datapath.cache 71291.214953                       # average overall miss latency
system.fft_transpose_datapath.cache.demand_avg_miss_latency::total 71291.214953                       # average overall miss latency
system.fft_transpose_datapath.cache.overall_avg_miss_latency::.fft_transpose_datapath.system.fft_transpose_datapath.cache 71291.214953                       # average overall miss latency
system.fft_transpose_datapath.cache.overall_avg_miss_latency::total 71291.214953                       # average overall miss latency
system.fft_transpose_datapath.cache.blocked_cycles::no_mshrs            0                       # number of cycles access was blocked
system.fft_transpose_datapath.cache.blocked_cycles::no_targets            0                       # number of cycles access was blocked
system.fft_transpose_datapath.cache.blocked::no_mshrs            0                       # number of cycles access was blocked
system.fft_transpose_datapath.cache.blocked::no_targets            0                       # number of cycles access was blocked
system.fft_transpose_datapath.cache.avg_blocked_cycles::no_mshrs          nan                       # average number of cycles each access was blocked
system.fft_transpose_datapath.cache.avg_blocked_cycles::no_targets          nan                       # average number of cycles each access was blocked
system.fft_transpose_datapath.cache.WriteReq_mshr_hits::.fft_transpose_datapath.system.fft_transpose_datapath.cache           32                       # number of WriteReq MSHR hits
system.fft_transpose_datapath.cache.WriteReq_mshr_hits::total           32                       # number of WriteReq MSHR hits
system.fft_transpose_datapath.cache.demand_mshr_hits::.fft_transpose_datapath.system.fft_transpose_datapath.cache           32                       # number of demand (read+write) MSHR hits
system.fft_transpose_datapath.cache.demand_mshr_hits::total           32                       # number of demand (read+write) MSHR hits
system.fft_transpose_datapath.cache.overall_mshr_hits::.fft_transpose_datapath.system.fft_transpose_datapath.cache           32                       # number of overall MSHR hits
system.fft_transpose_datapath.cache.overall_mshr_hits::total           32                       # number of overall MSHR hits
system.fft_transpose_datapath.cache.WriteReq_mshr_misses::.fft_transpose_datapath.system.fft_transpose_datapath.cache           75                       # number of WriteReq MSHR misses
system.fft_transpose_datapath.cache.WriteReq_mshr_misses::total           75                       # number of WriteReq MSHR misses
system.fft_transpose_datapath.cache.HardPFReq_mshr_misses::.fft_transpose_datapath.cache.prefetcher          339                       # number of HardPFReq MSHR misses
system.fft_transpose_datapath.cache.HardPFReq_mshr_misses::total          339                       # number of HardPFReq MSHR misses
system.fft_transpose_datapath.cache.demand_mshr_misses::.fft_transpose_datapath.system.fft_transpose_datapath.cache           75                       # number of demand (read+write) MSHR misses
system.fft_transpose_datapath.cache.demand_mshr_misses::total           75                       # number of demand (read+write) MSHR misses
system.fft_transpose_datapath.cache.overall_mshr_misses::.fft_transpose_datapath.system.fft_transpose_datapath.cache           75                       # number of overall MSHR misses
system.fft_transpose_datapath.cache.overall_mshr_misses::.fft_transpose_datapath.cache.prefetcher          339                       # number of overall MSHR misses
system.fft_transpose_datapath.cache.overall_mshr_misses::total          414                       # number of overall MSHR misses
system.fft_transpose_datapath.cache.WriteReq_mshr_miss_latency::.fft_transpose_datapath.system.fft_transpose_datapath.cache      5661064                       # number of WriteReq MSHR miss cycles
system.fft_transpose_datapath.cache.WriteReq_mshr_miss_latency::total      5661064                       # number of WriteReq MSHR miss cycles
system.fft_transpose_datapath.cache.HardPFReq_mshr_miss_latency::.fft_transpose_datapath.cache.prefetcher     28437722                       # number of HardPFReq MSHR miss cycles
system.fft_transpose_datapath.cache.HardPFReq_mshr_miss_latency::total     28437722                       # number of HardPFReq MSHR miss cycles
system.fft_transpose_datapath.cache.demand_mshr_miss_latency::.fft_transpose_datapath.system.fft_transpose_datapath.cache      5661064                       # number of demand (read+write) MSHR miss cycles
system.fft_transpose_datapath.cache.demand_mshr_miss_latency::total      5661064                       # number of demand (read+write) MSHR miss cycles
system.fft_transpose_datapath.cache.overall_mshr_miss_latency::.fft_transpose_datapath.system.fft_transpose_datapath.cache      5661064                       # number of overall MSHR miss cycles
system.fft_transpose_datapath.cache.overall_mshr_miss_latency::.fft_transpose_datapath.cache.prefetcher     28437722                       # number of overall MSHR miss cycles
system.fft_transpose_datapath.cache.overall_mshr_miss_latency::total     34098786                       # number of overall MSHR miss cycles
system.fft_transpose_datapath.cache.WriteReq_mshr_miss_rate::.fft_transpose_datapath.system.fft_transpose_datapath.cache     0.012207                       # mshr miss rate for WriteReq accesses
system.fft_transpose_datapath.cache.WriteReq_mshr_miss_rate::total     0.012207                       # mshr miss rate for WriteReq accesses
system.fft_transpose_datapath.cache.HardPFReq_mshr_miss_rate::.fft_transpose_datapath.cache.prefetcher          inf                       # mshr miss rate for HardPFReq accesses
system.fft_transpose_datapath.cache.HardPFReq_mshr_miss_rate::total          inf                       # mshr miss rate for HardPFReq accesses
system.fft_transpose_datapath.cache.demand_mshr_miss_rate::.fft_transpose_datapath.system.fft_transpose_datapath.cache     0.007417                       # mshr miss rate for demand accesses
system.fft_transpose_datapath.cache.demand_mshr_miss_rate::total     0.007417                       # mshr miss rate for demand accesses
system.fft_transpose_datapath.cache.overall_mshr_miss_rate::.fft_transpose_datapath.system.fft_transpose_datapath.cache     0.007417                       # mshr miss rate for overall accesses
system.fft_transpose_datapath.cache.overall_mshr_miss_rate::.fft_transpose_datapath.cache.prefetcher          inf                       # mshr miss rate for overall accesses
system.fft_transpose_datapath.cache.overall_mshr_miss_rate::total     0.040941                       # mshr miss rate for overall accesses
system.fft_transpose_datapath.cache.WriteReq_avg_mshr_miss_latency::.fft_transpose_datapath.system.fft_transpose_datapath.cache 75480.853333                       # average WriteReq mshr miss latency
system.fft_transpose_datapath.cache.WriteReq_avg_mshr_miss_latency::total 75480.853333                       # average WriteReq mshr miss latency
system.fft_transpose_datapath.cache.HardPFReq_avg_mshr_miss_latency::.fft_transpose_datapath.cache.prefetcher 83887.085546                       # average HardPFReq mshr miss latency
system.fft_transpose_datapath.cache.HardPFReq_avg_mshr_miss_latency::total 83887.085546                       # average HardPFReq mshr miss latency
system.fft_transpose_datapath.cache.demand_avg_mshr_miss_latency::.fft_transpose_datapath.system.fft_transpose_datapath.cache 75480.853333                       # average overall mshr miss latency
system.fft_transpose_datapath.cache.demand_avg_mshr_miss_latency::total 75480.853333                       # average overall mshr miss latency
system.fft_transpose_datapath.cache.overall_avg_mshr_miss_latency::.fft_transpose_datapath.system.fft_transpose_datapath.cache 75480.853333                       # average overall mshr miss latency
system.fft_transpose_datapath.cache.overall_avg_mshr_miss_latency::.fft_transpose_datapath.cache.prefetcher 83887.085546                       # average overall mshr miss latency
system.fft_transpose_datapath.cache.overall_avg_mshr_miss_latency::total 82364.217391                       # average overall mshr miss latency
system.fft_transpose_datapath.cache.replacements            0                       # number of replacements
system.membus.snoop_filter.tot_requests           414                       # Total number of requests made to the snoop filter.
system.membus.snoop_filter.hit_single_requests            0                       # Number of requests hitting in the snoop filter with a single holder of the requested data.
system.membus.snoop_filter.hit_multi_requests            0                       # Number of requests hitting in the snoop filter with multiple (>1) holders of the requested data.
system.membus.snoop_filter.tot_snoops               0                       # Total number of snoops made to the snoop filter.
system.membus.snoop_filter.hit_single_snoops            0                       # Number of snoops hitting in the snoop filter with a single holder of the requested data.
system.membus.snoop_filter.hit_multi_snoops            0                       # Number of snoops hitting in the snoop filter with multiple (>1) holders of the requested data.
system.membus.pwrStateResidencyTicks::UNDEFINED    102878000                       # Cumulative time (in ticks) in various power states
system.membus.trans_dist::ReadResp                339                       # Transaction distribution
system.membus.trans_dist::ReadExReq                71                       # Transaction distribution
system.membus.trans_dist::ReadExResp               71                       # Transaction distribution
system.membus.trans_dist::ReadSharedReq           339                       # Transaction distribution
system.membus.trans_dist::InvalidateReq             4                       # Transaction distribution
system.membus.pkt_count_system.fft_transpose_datapath.cache.mem_side::system.mem_ctrls.port          824                       # Packet count per connected master and slave (bytes)
system.membus.pkt_count::total                    824                       # Packet count per connected master and slave (bytes)
system.membus.pkt_size_system.fft_transpose_datapath.cache.mem_side::system.mem_ctrls.port        13120                       # Cumulative packet size per connected master and slave (bytes)
system.membus.pkt_size::total                   13120                       # Cumulative packet size per connected master and slave (bytes)
system.membus.snoops                                0                       # Total snoops (count)
system.membus.snoopTraffic                          0                       # Total snoop traffic (bytes)
system.membus.snoop_fanout::samples               414                       # Request fanout histogram
system.membus.snoop_fanout::mean                    0                       # Request fanout histogram
system.membus.snoop_fanout::stdev                   0                       # Request fanout histogram
system.membus.snoop_fanout::underflows              0      0.00%      0.00% # Request fanout histogram
system.membus.snoop_fanout::0                     414    100.00%    100.00% # Request fanout histogram
system.membus.snoop_fanout::1                       0      0.00%    100.00% # Request fanout histogram
system.membus.snoop_fanout::2                       0      0.00%    100.00% # Request fanout histogram
system.membus.snoop_fanout::overflows               0      0.00%    100.00% # Request fanout histogram
system.membus.snoop_fanout::min_value               0                       # Request fanout histogram
system.membus.snoop_fanout::max_value               0                       # Request fanout histogram
system.membus.snoop_fanout::total                 414                       # Request fanout histogram
system.membus.reqLayer0.occupancy              962118                       # Layer occupancy (ticks)
system.membus.reqLayer0.utilization               0.9                       # Layer utilization (%)
system.membus.respLayer1.occupancy            2610018                       # Layer occupancy (ticks)
system.membus.respLayer1.utilization              2.5                       # Layer utilization (%)

---------- End Simulation Statistics   ----------
