
---------- Begin Simulation Statistics ----------
sim_seconds                                  0.000109                       # Number of seconds simulated
sim_ticks                                   108798000                       # Number of ticks simulated
final_tick                                  108798000                       # Number of ticks from beginning of simulation (restored from checkpoints and never reset)
sim_freq                                 1000000000000                       # Frequency of simulated ticks
host_tick_rate                               42993155                       # Simulator tick rate (ticks/s)
host_mem_usage                                5069748                       # Number of bytes of host memory used
host_seconds                                     2.53                       # Real time elapsed on the host
system.voltage_domain.voltage                       1                       # Voltage in Volts
system.clk_domain.clock                          2004                       # Clock period in ticks
system.mem_ctrls.pwrStateResidencyTicks::UNDEFINED    108798000                       # Cumulative time (in ticks) in various power states
system.mem_ctrls.bytes_read::.md_knn_datapath.system.md_knn_datapath.cache         6208                       # Number of bytes read from this memory
system.mem_ctrls.bytes_read::.md_knn_datapath.cache.prefetcher        23488                       # Number of bytes read from this memory
system.mem_ctrls.bytes_read::total              29696                       # Number of bytes read from this memory
system.mem_ctrls.bytes_written::.writebacks         3168                       # Number of bytes written to this memory
system.mem_ctrls.bytes_written::total            3168                       # Number of bytes written to this memory
system.mem_ctrls.num_reads::.md_knn_datapath.system.md_knn_datapath.cache          194                       # Number of read requests responded to by this memory
system.mem_ctrls.num_reads::.md_knn_datapath.cache.prefetcher          734                       # Number of read requests responded to by this memory
system.mem_ctrls.num_reads::total                 928                       # Number of read requests responded to by this memory
system.mem_ctrls.num_writes::.writebacks           99                       # Number of write requests responded to by this memory
system.mem_ctrls.num_writes::total                 99                       # Number of write requests responded to by this memory
system.mem_ctrls.bw_read::.md_knn_datapath.system.md_knn_datapath.cache     57059872                       # Total read bandwidth from this memory (bytes/s)
system.mem_ctrls.bw_read::.md_knn_datapath.cache.prefetcher    215886321                       # Total read bandwidth from this memory (bytes/s)
system.mem_ctrls.bw_read::total             272946194                       # Total read bandwidth from this memory (bytes/s)
system.mem_ctrls.bw_write::.writebacks       29118182                       # Write bandwidth from this memory (bytes/s)
system.mem_ctrls.bw_write::total             29118182                       # Write bandwidth from this memory (bytes/s)
system.mem_ctrls.bw_total::.writebacks       29118182                       # Total bandwidth to/from this memory (bytes/s)
system.mem_ctrls.bw_total::.md_knn_datapath.system.md_knn_datapath.cache     57059872                       # Total bandwidth to/from this memory (bytes/s)
system.mem_ctrls.bw_total::.md_knn_datapath.cache.prefetcher    215886321                       # Total bandwidth to/from this memory (bytes/s)
system.mem_ctrls.bw_total::total            302064376                       # Total bandwidth to/from this memory (bytes/s)
system.mem_ctrls.avgPriority_.writebacks::samples        51.00                       # Average QoS priority value for accepted requests
system.mem_ctrls.avgPriority_.md_knn_datapath.system.md_knn_datapath.cache::samples       194.00                       # Average QoS priority value for accepted requests
system.mem_ctrls.avgPriority_.md_knn_datapath.cache.prefetcher::samples       731.00                       # Average QoS priority value for accepted requests
system.mem_ctrls.priorityMinLatency      0.000000018750                       # per QoS priority minimum request to response latency (s)
system.mem_ctrls.priorityMaxLatency      0.000087918750                       # per QoS priority maximum request to response latency (s)
system.mem_ctrls.numReadWriteTurnArounds            2                       # Number of turnarounds from READ to WRITE
system.mem_ctrls.numWriteReadTurnArounds            2                       # Number of turnarounds from WRITE to READ
system.mem_ctrls.numStayReadState                1846                       # Number of times bus staying in READ state
system.mem_ctrls.numStayWriteState                 34                       # Number of times bus staying in WRITE state
system.mem_ctrls.readReqs                         928                       # Number of read requests accepted
system.mem_ctrls.writeReqs                         99                       # Number of write requests accepted
system.mem_ctrls.readBursts                       928                       # Number of DRAM read bursts, including those serviced by the write queue
system.mem_ctrls.writeBursts                       99                       # Number of DRAM write bursts, including those merged in the write queue
system.mem_ctrls.bytesReadDRAM                  59200                       # Total number of bytes read from DRAM
system.mem_ctrls.bytesReadWrQ                     192                       # Total number of bytes read from write queue
system.mem_ctrls.bytesWritten                    2304                       # Total number of bytes written to DRAM
system.mem_ctrls.bytesReadSys                   29696                       # Total read bytes from the system interface side
system.mem_ctrls.bytesWrittenSys                 3168                       # Total written bytes from the system interface side
system.mem_ctrls.servicedByWrQ                      3                       # Number of DRAM read bursts serviced by the write queue
system.mem_ctrls.mergedWrBursts                    48                       # Number of DRAM write bursts merged with an existing one
system.mem_ctrls.neitherReadNorWriteReqs            0                       # Number of requests that are neither read nor write
system.mem_ctrls.perBankRdBursts::0                 0                       # Per bank write bursts
system.mem_ctrls.perBankRdBursts::1                40                       # Per bank write bursts
system.mem_ctrls.perBankRdBursts::2               269                       # Per bank write bursts
system.mem_ctrls.perBankRdBursts::3               264                       # Per bank write bursts
system.mem_ctrls.perBankRdBursts::4               256                       # Per bank write bursts
system.mem_ctrls.perBankRdBursts::5                96                       # Per bank write bursts
system.mem_ctrls.perBankRdBursts::6                 0                       # Per bank write bursts
system.mem_ctrls.perBankRdBursts::7                 0                       # Per bank write bursts
system.mem_ctrls.perBankRdBursts::8                 0                       # Per bank write bursts
system.mem_ctrls.perBankRdBursts::9                 0                       # Per bank write bursts
system.mem_ctrls.perBankRdBursts::10                0                       # Per bank write bursts
system.mem_ctrls.perBankRdBursts::11                0                       # Per bank write bursts
system.mem_ctrls.perBankRdBursts::12                0                       # Per bank write bursts
system.mem_ctrls.perBankRdBursts::13                0                       # Per bank write bursts
system.mem_ctrls.perBankRdBursts::14                0                       # Per bank write bursts
system.mem_ctrls.perBankRdBursts::15                0                       # Per bank write bursts
system.mem_ctrls.perBankWrBursts::0                 0                       # Per bank write bursts
system.mem_ctrls.perBankWrBursts::1                13                       # Per bank write bursts
system.mem_ctrls.perBankWrBursts::2                23                       # Per bank write bursts
system.mem_ctrls.perBankWrBursts::3                 0                       # Per bank write bursts
system.mem_ctrls.perBankWrBursts::4                 0                       # Per bank write bursts
system.mem_ctrls.perBankWrBursts::5                 0                       # Per bank write bursts
system.mem_ctrls.perBankWrBursts::6                 0                       # Per bank write bursts
system.mem_ctrls.perBankWrBursts::7                 0                       # Per bank write bursts
system.mem_ctrls.perBankWrBursts::8                 0                       # Per bank write bursts
system.mem_ctrls.perBankWrBursts::9                 0                       # Per bank write bursts
system.mem_ctrls.perBankWrBursts::10                0                       # Per bank write bursts
system.mem_ctrls.perBankWrBursts::11                0                       # Per bank write bursts
system.mem_ctrls.perBankWrBursts::12                0                       # Per bank write bursts
system.mem_ctrls.perBankWrBursts::13                0                       # Per bank write bursts
system.mem_ctrls.perBankWrBursts::14                0                       # Per bank write bursts
system.mem_ctrls.perBankWrBursts::15                0                       # Per bank write bursts
system.mem_ctrls.numRdRetry                         0                       # Number of times read queue was full causing retry
system.mem_ctrls.numWrRetry                         0                       # Number of times write queue was full causing retry
system.mem_ctrls.totGap                     108310424                       # Total gap between requests
system.mem_ctrls.readPktSize::0                     0                       # Read request sizes (log2)
system.mem_ctrls.readPktSize::1                     0                       # Read request sizes (log2)
system.mem_ctrls.readPktSize::2                     0                       # Read request sizes (log2)
system.mem_ctrls.readPktSize::3                     0                       # Read request sizes (log2)
system.mem_ctrls.readPktSize::4                     0                       # Read request sizes (log2)
system.mem_ctrls.readPktSize::5                   928                       # Read request sizes (log2)
system.mem_ctrls.readPktSize::6                     0                       # Read request sizes (log2)
system.mem_ctrls.writePktSize::0                    0                       # Write request sizes (log2)
system.mem_ctrls.writePktSize::1                    0                       # Write request sizes (log2)
system.mem_ctrls.writePktSize::2                    0                       # Write request sizes (log2)
system.mem_ctrls.writePktSize::3                    0                       # Write request sizes (log2)
system.mem_ctrls.writePktSize::4                    0                       # Write request sizes (log2)
system.mem_ctrls.writePktSize::5                   99                       # Write request sizes (log2)
system.mem_ctrls.writePktSize::6                    0                       # Write request sizes (log2)
system.mem_ctrls.rdQLenPdf::0                     315                       # What read queue length does an incoming req see
system.mem_ctrls.rdQLenPdf::1                     304                       # What read queue length does an incoming req see
system.mem_ctrls.rdQLenPdf::2                      78                       # What read queue length does an incoming req see
system.mem_ctrls.rdQLenPdf::3                      22                       # What read queue length does an incoming req see
system.mem_ctrls.rdQLenPdf::4                      37                       # What read queue length does an incoming req see
system.mem_ctrls.rdQLenPdf::5                      38                       # What read queue length does an incoming req see
system.mem_ctrls.rdQLenPdf::6                      32                       # What read queue length does an incoming req see
system.mem_ctrls.rdQLenPdf::7                      23                       # What read queue length does an incoming req see
system.mem_ctrls.rdQLenPdf::8                      24                       # What read queue length does an incoming req see
system.mem_ctrls.rdQLenPdf::9                      18                       # What read queue length does an incoming req see
system.mem_ctrls.rdQLenPdf::10                      7                       # What read queue length does an incoming req see
system.mem_ctrls.rdQLenPdf::11                     12                       # What read queue length does an incoming req see
system.mem_ctrls.rdQLenPdf::12                     11                       # What read queue length does an incoming req see
system.mem_ctrls.rdQLenPdf::13                      4                       # What read queue length does an incoming req see
system.mem_ctrls.rdQLenPdf::14                      0                       # What read queue length does an incoming req see
system.mem_ctrls.rdQLenPdf::15                      0                       # What read queue length does an incoming req see
system.mem_ctrls.rdQLenPdf::16                      0                       # What read queue length does an incoming req see
system.mem_ctrls.rdQLenPdf::17                      0                       # What read queue length does an incoming req see
system.mem_ctrls.rdQLenPdf::18                      0                       # What read queue length does an incoming req see
system.mem_ctrls.rdQLenPdf::19                      0                       # What read queue length does an incoming req see
system.mem_ctrls.rdQLenPdf::20                      0                       # What read queue length does an incoming req see
system.mem_ctrls.rdQLenPdf::21                      0                       # What read queue length does an incoming req see
system.mem_ctrls.rdQLenPdf::22                      0                       # What read queue length does an incoming req see
system.mem_ctrls.rdQLenPdf::23                      0                       # What read queue length does an incoming req see
system.mem_ctrls.rdQLenPdf::24                      0                       # What read queue length does an incoming req see
system.mem_ctrls.rdQLenPdf::25                      0                       # What read queue length does an incoming req see
system.mem_ctrls.rdQLenPdf::26                      0                       # What read queue length does an incoming req see
system.mem_ctrls.rdQLenPdf::27                      0                       # What read queue length does an incoming req see
system.mem_ctrls.rdQLenPdf::28                      0                       # What read queue length does an incoming req see
system.mem_ctrls.rdQLenPdf::29                      0                       # What read queue length does an incoming req see
system.mem_ctrls.rdQLenPdf::30                      0                       # What read queue length does an incoming req see
system.mem_ctrls.rdQLenPdf::31                      0                       # What read queue length does an incoming req see
system.mem_ctrls.wrQLenPdf::0                       1                       # What write queue length does an incoming req see
system.mem_ctrls.wrQLenPdf::1                       1                       # What write queue length does an incoming req see
system.mem_ctrls.wrQLenPdf::2                       1                       # What write queue length does an incoming req see
system.mem_ctrls.wrQLenPdf::3                       1                       # What write queue length does an incoming req see
system.mem_ctrls.wrQLenPdf::4                       1                       # What write queue length does an incoming req see
system.mem_ctrls.wrQLenPdf::5                       1                       # What write queue length does an incoming req see
system.mem_ctrls.wrQLenPdf::6                       1                       # What write queue length does an incoming req see
system.mem_ctrls.wrQLenPdf::7                       1                       # What write queue length does an incoming req see
system.mem_ctrls.wrQLenPdf::8                       1                       # What write queue length does an incoming req see
system.mem_ctrls.wrQLenPdf::9                       1                       # What write queue length does an incoming req see
system.mem_ctrls.wrQLenPdf::10                      1                       # What write queue length does an incoming req see
system.mem_ctrls.wrQLenPdf::11                      1                       # What write queue length does an incoming req see
system.mem_ctrls.wrQLenPdf::12                      1                       # What write queue length does an incoming req see
system.mem_ctrls.wrQLenPdf::13                      1                       # What write queue length does an incoming req see
system.mem_ctrls.wrQLenPdf::14                      1                       # What write queue length does an incoming req see
system.mem_ctrls.wrQLenPdf::15                      2                       # What write queue length does an incoming req see
system.mem_ctrls.wrQLenPdf::16                      2                       # What write queue length does an incoming req see
system.mem_ctrls.wrQLenPdf::17                      2                       # What write queue length does an incoming req see
system.mem_ctrls.wrQLenPdf::18                      2                       # What write queue length does an incoming req see
system.mem_ctrls.wrQLenPdf::19                      2                       # What write queue length does an incoming req see
system.mem_ctrls.wrQLenPdf::20                      2                       # What write queue length does an incoming req see
system.mem_ctrls.wrQLenPdf::21                      2                       # What write queue length does an incoming req see
system.mem_ctrls.wrQLenPdf::22                      2                       # What write queue length does an incoming req see
system.mem_ctrls.wrQLenPdf::23                      2                       # What write queue length does an incoming req see
system.mem_ctrls.wrQLenPdf::24                      2                       # What write queue length does an incoming req see
system.mem_ctrls.wrQLenPdf::25                      2                       # What write queue length does an incoming req see
system.mem_ctrls.wrQLenPdf::26                      2                       # What write queue length does an incoming req see
system.mem_ctrls.wrQLenPdf::27                      2                       # What write queue length does an incoming req see
system.mem_ctrls.wrQLenPdf::28                      2                       # What write queue length does an incoming req see
system.mem_ctrls.wrQLenPdf::29                      2                       # What write queue length does an incoming req see
system.mem_ctrls.wrQLenPdf::30                      2                       # What write queue length does an incoming req see
system.mem_ctrls.wrQLenPdf::31                      2                       # What write queue length does an incoming req see
system.mem_ctrls.wrQLenPdf::32                      2                       # What write queue length does an incoming req see
system.mem_ctrls.wrQLenPdf::33                      0                       # What write queue length does an incoming req see
system.mem_ctrls.wrQLenPdf::34                      0                       # What write queue length does an incoming req see
system.mem_ctrls.wrQLenPdf::35                      0                       # What write queue length does an incoming req see
system.mem_ctrls.wrQLenPdf::36                      0                       # What write queue length does an incoming req see
system.mem_ctrls.wrQLenPdf::37                      0                       # What write queue length does an incoming req see
system.mem_ctrls.wrQLenPdf::38                      0                       # What write queue length does an incoming req see
system.mem_ctrls.wrQLenPdf::39                      0                       # What write queue length does an incoming req see
system.mem_ctrls.wrQLenPdf::40                      0                       # What write queue length does an incoming req see
system.mem_ctrls.wrQLenPdf::41                      0                       # What write queue length does an incoming req see
system.mem_ctrls.wrQLenPdf::42                      0                       # What write queue length does an incoming req see
system.mem_ctrls.wrQLenPdf::43                      0                       # What write queue length does an incoming req see
system.mem_ctrls.wrQLenPdf::44                      0                       # What write queue length does an incoming req see
system.mem_ctrls.wrQLenPdf::45                      0                       # What write queue length does an incoming req see
system.mem_ctrls.wrQLenPdf::46                      0                       # What write queue length does an incoming req see
system.mem_ctrls.wrQLenPdf::47                      0                       # What write queue length does an incoming req see
system.mem_ctrls.wrQLenPdf::48                      0                       # What write queue length does an incoming req see
system.mem_ctrls.wrQLenPdf::49                      0                       # What write queue length does an incoming req see
system.mem_ctrls.wrQLenPdf::50                      0                       # What write queue length does an incoming req see
system.mem_ctrls.wrQLenPdf::51                      0                       # What write queue length does an incoming req see
system.mem_ctrls.wrQLenPdf::52                      0                       # What write queue length does an incoming req see
system.mem_ctrls.wrQLenPdf::53                      0                       # What write queue length does an incoming req see
system.mem_ctrls.wrQLenPdf::54                      0                       # What write queue length does an incoming req see
system.mem_ctrls.wrQLenPdf::55                      0                       # What write queue length does an incoming req see
system.mem_ctrls.wrQLenPdf::56                      0                       # What write queue length does an incoming req see
system.mem_ctrls.wrQLenPdf::57                      0                       # What write queue length does an incoming req see
system.mem_ctrls.wrQLenPdf::58                      0                       # What write queue length does an incoming req see
system.mem_ctrls.wrQLenPdf::59                      0                       # What write queue length does an incoming req see
system.mem_ctrls.wrQLenPdf::60                      0                       # What write queue length does an incoming req see
system.mem_ctrls.wrQLenPdf::61                      0                       # What write queue length does an incoming req see
system.mem_ctrls.wrQLenPdf::62                      0                       # What write queue length does an incoming req see
system.mem_ctrls.wrQLenPdf::63                      0                       # What write queue length does an incoming req see
system.mem_ctrls.bytesPerActivate::samples           79                       # Bytes accessed per row activation
system.mem_ctrls.bytesPerActivate::mean    764.759494                       # Bytes accessed per row activation
system.mem_ctrls.bytesPerActivate::gmean   667.739744                       # Bytes accessed per row activation
system.mem_ctrls.bytesPerActivate::stdev   322.272747                       # Bytes accessed per row activation
system.mem_ctrls.bytesPerActivate::128-255            3      3.80%      3.80% # Bytes accessed per row activation
system.mem_ctrls.bytesPerActivate::256-383           11     13.92%     17.72% # Bytes accessed per row activation
system.mem_ctrls.bytesPerActivate::384-511            8     10.13%     27.85% # Bytes accessed per row activation
system.mem_ctrls.bytesPerActivate::512-639            4      5.06%     32.91% # Bytes accessed per row activation
system.mem_ctrls.bytesPerActivate::640-767            4      5.06%     37.97% # Bytes accessed per row activation
system.mem_ctrls.bytesPerActivate::768-895            3      3.80%     41.77% # Bytes accessed per row activation
system.mem_ctrls.bytesPerActivate::896-1023            4      5.06%     46.84% # Bytes accessed per row activation
system.mem_ctrls.bytesPerActivate::1024-1151           42     53.16%    100.00% # Bytes accessed per row activation
system.mem_ctrls.bytesPerActivate::total           79                       # Bytes accessed per row activation
system.mem_ctrls.rdPerTurnAround::samples            2                       # Reads before turning the bus around for writes
system.mem_ctrls.rdPerTurnAround::mean            445                       # Reads before turning the bus around for writes
system.mem_ctrls.rdPerTurnAround::gmean    303.973683                       # Reads before turning the bus around for writes
system.mem_ctrls.rdPerTurnAround::stdev    459.619408                       # Reads before turning the bus around for writes
system.mem_ctrls.rdPerTurnAround::96-127            1     50.00%     50.00% # Reads before turning the bus around for writes
system.mem_ctrls.rdPerTurnAround::768-799            1     50.00%    100.00% # Reads before turning the bus around for writes
system.mem_ctrls.rdPerTurnAround::total             2                       # Reads before turning the bus around for writes
system.mem_ctrls.wrPerTurnAround::samples            2                       # Writes before turning the bus around for reads
system.mem_ctrls.wrPerTurnAround::mean             18                       # Writes before turning the bus around for reads
system.mem_ctrls.wrPerTurnAround::gmean     18.000000                       # Writes before turning the bus around for reads
system.mem_ctrls.wrPerTurnAround::18                2    100.00%    100.00% # Writes before turning the bus around for reads
system.mem_ctrls.wrPerTurnAround::total             2                       # Writes before turning the bus around for reads
system.mem_ctrls.masterReadBytes::.md_knn_datapath.system.md_knn_datapath.cache         6208                       # Per-master bytes read from memory
system.mem_ctrls.masterReadBytes::.md_knn_datapath.cache.prefetcher        23392                       # Per-master bytes read from memory
system.mem_ctrls.masterWriteBytes::.writebacks         1152                       # Per-master bytes write to memory
system.mem_ctrls.masterReadRate::.md_knn_datapath.system.md_knn_datapath.cache 57059872.424125447869                       # Per-master bytes read from memory rate (Bytes/sec)
system.mem_ctrls.masterReadRate::.md_knn_datapath.cache.prefetcher 215003952.278534531593                       # Per-master bytes read from memory rate (Bytes/sec)
system.mem_ctrls.masterWriteRate::.writebacks 10588429.934373794124                       # Per-master bytes write to memory rate (Bytes/sec)
system.mem_ctrls.masterReadAccesses::.md_knn_datapath.system.md_knn_datapath.cache          194                       # Per-master read serviced memory accesses
system.mem_ctrls.masterReadAccesses::.md_knn_datapath.cache.prefetcher          734                       # Per-master read serviced memory accesses
system.mem_ctrls.masterWriteAccesses::.writebacks           99                       # Per-master write serviced memory accesses
system.mem_ctrls.masterReadTotalLat::.md_knn_datapath.system.md_knn_datapath.cache      8294666                       # Per-master read total memory access latency
system.mem_ctrls.masterReadTotalLat::.md_knn_datapath.cache.prefetcher     26198192                       # Per-master read total memory access latency
system.mem_ctrls.masterWriteTotalLat::.writebacks    954084000                       # Per-master write total memory access latency
system.mem_ctrls.masterReadAvgLat::.md_knn_datapath.system.md_knn_datapath.cache     42756.01                       # Per-master read average memory access latency
system.mem_ctrls.masterReadAvgLat::.md_knn_datapath.cache.prefetcher     35692.36                       # Per-master read average memory access latency
system.mem_ctrls.masterWriteAvgLat::.writebacks   9637212.12                       # Per-master write average memory access latency
system.mem_ctrls.totQLat                     17149108                       # Total ticks spent queuing
system.mem_ctrls.totMemAccLat                34492858                       # Total ticks spent from burst creation until serviced by the DRAM
system.mem_ctrls.totBusLat                    4625000                       # Total ticks spent in databus transfers
system.mem_ctrls.avgQLat                     18539.58                       # Average queueing delay per DRAM burst
system.mem_ctrls.avgBusLat                    5000.00                       # Average bus latency per DRAM burst
system.mem_ctrls.avgMemAccLat                37289.58                       # Average memory access latency per DRAM burst
system.mem_ctrls.avgRdBW                       544.13                       # Average DRAM read bandwidth in MiByte/s
system.mem_ctrls.avgWrBW                        21.18                       # Average achieved write bandwidth in MiByte/s
system.mem_ctrls.avgRdBWSys                    272.95                       # Average system read bandwidth in MiByte/s
system.mem_ctrls.avgWrBWSys                     29.12                       # Average system write bandwidth in MiByte/s
system.mem_ctrls.peakBW                      12800.00                       # Theoretical peak bandwidth in MiByte/s
system.mem_ctrls.busUtil                         4.42                       # Data bus utilization in percentage
system.mem_ctrls.busUtilRead                     4.25                       # Data bus utilization in percentage for reads
system.mem_ctrls.busUtilWrite                    0.17                       # Data bus utilization in percentage for writes
system.mem_ctrls.avgRdQLen                       2.47                       # Average read queue length when enqueuing
system.mem_ctrls.avgWrQLen                      11.59                       # Average write queue length when enqueuing
system.mem_ctrls.readRowHits                      845                       # Number of row buffer hits during reads
system.mem_ctrls.writeRowHits                      33                       # Number of row buffer hits during writes
system.mem_ctrls.readRowHitRate                 91.35                       # Row buffer hit rate for reads
system.mem_ctrls.writeRowHitRate                64.71                       # Row buffer hit rate for writes
system.mem_ctrls.avgGap                     105462.93                       # Average gap between requests
system.mem_ctrls.pageHitRate                    89.96                       # Row buffer hit rate, read and write combined
system.mem_ctrls_0.actEnergy                   592620                       # Energy for activate commands per rank (pJ)
system.mem_ctrls_0.preEnergy                   299805                       # Energy for precharge commands per rank (pJ)
system.mem_ctrls_0.readEnergy                 6604500                       # Energy for read commands per rank (pJ)
system.mem_ctrls_0.writeEnergy                 187920                       # Energy for write commands per rank (pJ)
system.mem_ctrls_0.refreshEnergy         7990320.000000                       # Energy for refresh commands per rank (pJ)
system.mem_ctrls_0.actBackEnergy             11200500                       # Energy for active background per rank (pJ)
system.mem_ctrls_0.preBackEnergy               211200                       # Energy for precharge background per rank (pJ)
system.mem_ctrls_0.actPowerDownEnergy        37627980                       # Energy for active power-down per rank (pJ)
system.mem_ctrls_0.prePowerDownEnergy          448800                       # Energy for precharge power-down per rank (pJ)
system.mem_ctrls_0.selfRefreshEnergy                0                       # Energy for self refresh per rank (pJ)
system.mem_ctrls_0.totalEnergy               65163645                       # Total energy per rank (pJ)
system.mem_ctrls_0.averagePower            598.941571                       # Core power per rank (mW)
system.mem_ctrls_0.totalIdleTime             83341880                       # Total Idle time Per DRAM Rank
system.mem_ctrls_0.memoryStateTime::IDLE       190000                       # Time in different power states
system.mem_ctrls_0.memoryStateTime::REF       3380000                       # Time in different power states
system.mem_ctrls_0.memoryStateTime::SREF            0                       # Time in different power states
system.mem_ctrls_0.memoryStateTime::PRE_PDN      1166587                       # Time in different power states
system.mem_ctrls_0.memoryStateTime::ACT      21543899                       # Time in different power states
system.mem_ctrls_0.memoryStateTime::ACT_PDN     82517514                       # Time in different power states
system.mem_ctrls_1.actEnergy                        0                       # Energy for activate commands per rank (pJ)
system.mem_ctrls_1.preEnergy                        0                       # Energy for precharge commands per rank (pJ)
system.mem_ctrls_1.readEnergy                       0                       # Energy for read commands per rank (pJ)
system.mem_ctrls_1.writeEnergy                      0                       # Energy for write commands per rank (pJ)
system.mem_ctrls_1.refreshEnergy         614640.000000                       # Energy for refresh commands per rank (pJ)
system.mem_ctrls_1.actBackEnergy               112290                       # Energy for active background per rank (pJ)
system.mem_ctrls_1.preBackEnergy              2997600                       # Energy for precharge background per rank (pJ)
system.mem_ctrls_1.actPowerDownEnergy               0                       # Energy for active power-down per rank (pJ)
system.mem_ctrls_1.prePowerDownEnergy         2890080                       # Energy for precharge power-down per rank (pJ)
system.mem_ctrls_1.selfRefreshEnergy         22925040                       # Energy for self refresh per rank (pJ)
system.mem_ctrls_1.totalEnergy               29539650                       # Total energy per rank (pJ)
system.mem_ctrls_1.averagePower            271.509127                       # Core power per rank (mW)
system.mem_ctrls_1.totalIdleTime              7526250                       # Total Idle time Per DRAM Rank
system.mem_ctrls_1.memoryStateTime::IDLE      7792250                       # Time in different power states
system.mem_ctrls_1.memoryStateTime::REF        260000                       # Time in different power states
system.mem_ctrls_1.memoryStateTime::SREF     93219500                       # Time in different power states
system.mem_ctrls_1.memoryStateTime::PRE_PDN      7526250                       # Time in different power states
system.mem_ctrls_1.memoryStateTime::ACT             0                       # Time in different power states
system.mem_ctrls_1.memoryStateTime::ACT_PDN            0                       # Time in different power states
system.pwrStateResidencyTicks::UNDEFINED    108798000                       # Cumulative time (in ticks) in various power states
system.cpu_voltage_domain.voltage                   1                       # Voltage in Volts
system.cpu_clk_domain.clock                       500                       # Clock period in ticks
system.md_knn_datapath.clk_domain.clock          2000                       # Clock period in ticks
system.md_knn_datapath.pwrStateResidencyTicks::UNDEFINED    108798000                       # Cumulative time (in ticks) in various power states
system.md_knn_datapath.cache_queue_reads            0                       # Number of reads to the md_knn_datapath.cache_queue
system.md_knn_datapath.cache_queue_writes            0                       # Number of writes to the md_knn_datapath.cache_queue
system.md_knn_datapath.total_dcache_loads        12941                       # Total number of dcache loads
system.md_knn_datapath.total_dcache_stores          768                       # Total number of dcache stores.
system.md_knn_datapath.dcache_latency::samples        13709                       # Histogram of dcache total access latency
system.md_knn_datapath.dcache_latency::mean  3392.052083                       # Histogram of dcache total access latency
system.md_knn_datapath.dcache_latency::gmean  2115.164988                       # Histogram of dcache total access latency
system.md_knn_datapath.dcache_latency::stdev 11794.705311                       # Histogram of dcache total access latency
system.md_knn_datapath.dcache_latency::0-8191        13515     98.58%     98.58% # Histogram of dcache total access latency
system.md_knn_datapath.dcache_latency::8192-16383            0      0.00%     98.58% # Histogram of dcache total access latency
system.md_knn_datapath.dcache_latency::16384-24575            0      0.00%     98.58% # Histogram of dcache total access latency
system.md_knn_datapath.dcache_latency::24576-32767            0      0.00%     98.58% # Histogram of dcache total access latency
system.md_knn_datapath.dcache_latency::32768-40959            0      0.00%     98.58% # Histogram of dcache total access latency
system.md_knn_datapath.dcache_latency::40960-49151            0      0.00%     98.58% # Histogram of dcache total access latency
system.md_knn_datapath.dcache_latency::49152-57343            0      0.00%     98.58% # Histogram of dcache total access latency
system.md_knn_datapath.dcache_latency::57344-65535            0      0.00%     98.58% # Histogram of dcache total access latency
system.md_knn_datapath.dcache_latency::65536-73727           13      0.09%     98.68% # Histogram of dcache total access latency
system.md_knn_datapath.dcache_latency::73728-81919           15      0.11%     98.79% # Histogram of dcache total access latency
system.md_knn_datapath.dcache_latency::81920-90111           30      0.22%     99.01% # Histogram of dcache total access latency
system.md_knn_datapath.dcache_latency::90112-98303           31      0.23%     99.23% # Histogram of dcache total access latency
system.md_knn_datapath.dcache_latency::98304-106495           52      0.38%     99.61% # Histogram of dcache total access latency
system.md_knn_datapath.dcache_latency::106496-114687           14      0.10%     99.72% # Histogram of dcache total access latency
system.md_knn_datapath.dcache_latency::114688-122879           15      0.11%     99.82% # Histogram of dcache total access latency
system.md_knn_datapath.dcache_latency::122880-131071           14      0.10%     99.93% # Histogram of dcache total access latency
system.md_knn_datapath.dcache_latency::131072-139263            3      0.02%     99.95% # Histogram of dcache total access latency
system.md_knn_datapath.dcache_latency::139264-147455            4      0.03%     99.98% # Histogram of dcache total access latency
system.md_knn_datapath.dcache_latency::147456-155647            2      0.01%     99.99% # Histogram of dcache total access latency
system.md_knn_datapath.dcache_latency::155648-163839            1      0.01%    100.00% # Histogram of dcache total access latency
system.md_knn_datapath.dcache_latency::163840-172031            0      0.00%    100.00% # Histogram of dcache total access latency
system.md_knn_datapath.dcache_latency::172032-180223            0      0.00%    100.00% # Histogram of dcache total access latency
system.md_knn_datapath.dcache_latency::180224-188415            0      0.00%    100.00% # Histogram of dcache total access latency
system.md_knn_datapath.dcache_latency::188416-196607            0      0.00%    100.00% # Histogram of dcache total access latency
system.md_knn_datapath.dcache_latency::196608-204799            0      0.00%    100.00% # Histogram of dcache total access latency
system.md_knn_datapath.dcache_latency::204800-212991            0      0.00%    100.00% # Histogram of dcache total access latency
system.md_knn_datapath.dcache_latency::212992-221183            0      0.00%    100.00% # Histogram of dcache total access latency
system.md_knn_datapath.dcache_latency::221184-229375            0      0.00%    100.00% # Histogram of dcache total access latency
system.md_knn_datapath.dcache_latency::229376-237567            0      0.00%    100.00% # Histogram of dcache total access latency
system.md_knn_datapath.dcache_latency::237568-245759            0      0.00%    100.00% # Histogram of dcache total access latency
system.md_knn_datapath.dcache_latency::total        13709                       # Histogram of dcache total access latency
system.md_knn_datapath.dcache_queue_time::samples        13625                       # Histogram of time dcache request spent in queue
system.md_knn_datapath.dcache_queue_time::mean 46706.055046                       # Histogram of time dcache request spent in queue
system.md_knn_datapath.dcache_queue_time::gmean 46451.049624                       # Histogram of time dcache request spent in queue
system.md_knn_datapath.dcache_queue_time::stdev  5565.019976                       # Histogram of time dcache request spent in queue
system.md_knn_datapath.dcache_queue_time::0-8191            0      0.00%      0.00% # Histogram of time dcache request spent in queue
system.md_knn_datapath.dcache_queue_time::8192-16383            0      0.00%      0.00% # Histogram of time dcache request spent in queue
system.md_knn_datapath.dcache_queue_time::16384-24575            0      0.00%      0.00% # Histogram of time dcache request spent in queue
system.md_knn_datapath.dcache_queue_time::24576-32767            0      0.00%      0.00% # Histogram of time dcache request spent in queue
system.md_knn_datapath.dcache_queue_time::32768-40959            0      0.00%      0.00% # Histogram of time dcache request spent in queue
system.md_knn_datapath.dcache_queue_time::40960-49151         9558     70.15%     70.15% # Histogram of time dcache request spent in queue
system.md_knn_datapath.dcache_queue_time::49152-57343         4013     29.45%     99.60% # Histogram of time dcache request spent in queue
system.md_knn_datapath.dcache_queue_time::57344-65535           10      0.07%     99.68% # Histogram of time dcache request spent in queue
system.md_knn_datapath.dcache_queue_time::65536-73727            4      0.03%     99.71% # Histogram of time dcache request spent in queue
system.md_knn_datapath.dcache_queue_time::73728-81919           13      0.10%     99.80% # Histogram of time dcache request spent in queue
system.md_knn_datapath.dcache_queue_time::81920-90111           17      0.12%     99.93% # Histogram of time dcache request spent in queue
system.md_knn_datapath.dcache_queue_time::90112-98303            0      0.00%     99.93% # Histogram of time dcache request spent in queue
system.md_knn_datapath.dcache_queue_time::98304-106495            0      0.00%     99.93% # Histogram of time dcache request spent in queue
system.md_knn_datapath.dcache_queue_time::106496-114687            0      0.00%     99.93% # Histogram of time dcache request spent in queue
system.md_knn_datapath.dcache_queue_time::114688-122879            0      0.00%     99.93% # Histogram of time dcache request spent in queue
system.md_knn_datapath.dcache_queue_time::122880-131071            0      0.00%     99.93% # Histogram of time dcache request spent in queue
system.md_knn_datapath.dcache_queue_time::131072-139263            0      0.00%     99.93% # Histogram of time dcache request spent in queue
system.md_knn_datapath.dcache_queue_time::139264-147455            0      0.00%     99.93% # Histogram of time dcache request spent in queue
system.md_knn_datapath.dcache_queue_time::147456-155647            7      0.05%     99.98% # Histogram of time dcache request spent in queue
system.md_knn_datapath.dcache_queue_time::155648-163839            0      0.00%     99.98% # Histogram of time dcache request spent in queue
system.md_knn_datapath.dcache_queue_time::163840-172031            0      0.00%     99.98% # Histogram of time dcache request spent in queue
system.md_knn_datapath.dcache_queue_time::172032-180223            0      0.00%     99.98% # Histogram of time dcache request spent in queue
system.md_knn_datapath.dcache_queue_time::180224-188415            3      0.02%    100.00% # Histogram of time dcache request spent in queue
system.md_knn_datapath.dcache_queue_time::188416-196607            0      0.00%    100.00% # Histogram of time dcache request spent in queue
system.md_knn_datapath.dcache_queue_time::196608-204799            0      0.00%    100.00% # Histogram of time dcache request spent in queue
system.md_knn_datapath.dcache_queue_time::204800-212991            0      0.00%    100.00% # Histogram of time dcache request spent in queue
system.md_knn_datapath.dcache_queue_time::212992-221183            0      0.00%    100.00% # Histogram of time dcache request spent in queue
system.md_knn_datapath.dcache_queue_time::221184-229375            0      0.00%    100.00% # Histogram of time dcache request spent in queue
system.md_knn_datapath.dcache_queue_time::229376-237567            0      0.00%    100.00% # Histogram of time dcache request spent in queue
system.md_knn_datapath.dcache_queue_time::237568-245759            0      0.00%    100.00% # Histogram of time dcache request spent in queue
system.md_knn_datapath.dcache_queue_time::total        13625                       # Histogram of time dcache request spent in queue
system.md_knn_datapath.total_acp_loads              0                       # Total number of ACP loads
system.md_knn_datapath.total_acp_stores             0                       # Total number of ACP stores.
system.md_knn_datapath.acp_latency::samples            0                       # Histogram of ACP transaction total latency
system.md_knn_datapath.acp_latency::mean          nan                       # Histogram of ACP transaction total latency
system.md_knn_datapath.acp_latency::gmean          nan                       # Histogram of ACP transaction total latency
system.md_knn_datapath.acp_latency::stdev          nan                       # Histogram of ACP transaction total latency
system.md_knn_datapath.acp_latency::0               0                       # Histogram of ACP transaction total latency
system.md_knn_datapath.acp_latency::1               0                       # Histogram of ACP transaction total latency
system.md_knn_datapath.acp_latency::2               0                       # Histogram of ACP transaction total latency
system.md_knn_datapath.acp_latency::3               0                       # Histogram of ACP transaction total latency
system.md_knn_datapath.acp_latency::4               0                       # Histogram of ACP transaction total latency
system.md_knn_datapath.acp_latency::5               0                       # Histogram of ACP transaction total latency
system.md_knn_datapath.acp_latency::6               0                       # Histogram of ACP transaction total latency
system.md_knn_datapath.acp_latency::7               0                       # Histogram of ACP transaction total latency
system.md_knn_datapath.acp_latency::8               0                       # Histogram of ACP transaction total latency
system.md_knn_datapath.acp_latency::9               0                       # Histogram of ACP transaction total latency
system.md_knn_datapath.acp_latency::10              0                       # Histogram of ACP transaction total latency
system.md_knn_datapath.acp_latency::11              0                       # Histogram of ACP transaction total latency
system.md_knn_datapath.acp_latency::12              0                       # Histogram of ACP transaction total latency
system.md_knn_datapath.acp_latency::13              0                       # Histogram of ACP transaction total latency
system.md_knn_datapath.acp_latency::14              0                       # Histogram of ACP transaction total latency
system.md_knn_datapath.acp_latency::15              0                       # Histogram of ACP transaction total latency
system.md_knn_datapath.acp_latency::16              0                       # Histogram of ACP transaction total latency
system.md_knn_datapath.acp_latency::17              0                       # Histogram of ACP transaction total latency
system.md_knn_datapath.acp_latency::18              0                       # Histogram of ACP transaction total latency
system.md_knn_datapath.acp_latency::19              0                       # Histogram of ACP transaction total latency
system.md_knn_datapath.acp_latency::20              0                       # Histogram of ACP transaction total latency
system.md_knn_datapath.acp_latency::21              0                       # Histogram of ACP transaction total latency
system.md_knn_datapath.acp_latency::22              0                       # Histogram of ACP transaction total latency
system.md_knn_datapath.acp_latency::23              0                       # Histogram of ACP transaction total latency
system.md_knn_datapath.acp_latency::24              0                       # Histogram of ACP transaction total latency
system.md_knn_datapath.acp_latency::25              0                       # Histogram of ACP transaction total latency
system.md_knn_datapath.acp_latency::26              0                       # Histogram of ACP transaction total latency
system.md_knn_datapath.acp_latency::27              0                       # Histogram of ACP transaction total latency
system.md_knn_datapath.acp_latency::28              0                       # Histogram of ACP transaction total latency
system.md_knn_datapath.acp_latency::29              0                       # Histogram of ACP transaction total latency
system.md_knn_datapath.acp_latency::total            0                       # Histogram of ACP transaction total latency
system.md_knn_datapath.acp_queue_time::samples            0                       # Histogram of time ACP request spent in queue
system.md_knn_datapath.acp_queue_time::mean          nan                       # Histogram of time ACP request spent in queue
system.md_knn_datapath.acp_queue_time::gmean          nan                       # Histogram of time ACP request spent in queue
system.md_knn_datapath.acp_queue_time::stdev          nan                       # Histogram of time ACP request spent in queue
system.md_knn_datapath.acp_queue_time::0            0                       # Histogram of time ACP request spent in queue
system.md_knn_datapath.acp_queue_time::1            0                       # Histogram of time ACP request spent in queue
system.md_knn_datapath.acp_queue_time::2            0                       # Histogram of time ACP request spent in queue
system.md_knn_datapath.acp_queue_time::3            0                       # Histogram of time ACP request spent in queue
system.md_knn_datapath.acp_queue_time::4            0                       # Histogram of time ACP request spent in queue
system.md_knn_datapath.acp_queue_time::5            0                       # Histogram of time ACP request spent in queue
system.md_knn_datapath.acp_queue_time::6            0                       # Histogram of time ACP request spent in queue
system.md_knn_datapath.acp_queue_time::7            0                       # Histogram of time ACP request spent in queue
system.md_knn_datapath.acp_queue_time::8            0                       # Histogram of time ACP request spent in queue
system.md_knn_datapath.acp_queue_time::9            0                       # Histogram of time ACP request spent in queue
system.md_knn_datapath.acp_queue_time::10            0                       # Histogram of time ACP request spent in queue
system.md_knn_datapath.acp_queue_time::11            0                       # Histogram of time ACP request spent in queue
system.md_knn_datapath.acp_queue_time::12            0                       # Histogram of time ACP request spent in queue
system.md_knn_datapath.acp_queue_time::13            0                       # Histogram of time ACP request spent in queue
system.md_knn_datapath.acp_queue_time::14            0                       # Histogram of time ACP request spent in queue
system.md_knn_datapath.acp_queue_time::15            0                       # Histogram of time ACP request spent in queue
system.md_knn_datapath.acp_queue_time::16            0                       # Histogram of time ACP request spent in queue
system.md_knn_datapath.acp_queue_time::17            0                       # Histogram of time ACP request spent in queue
system.md_knn_datapath.acp_queue_time::18            0                       # Histogram of time ACP request spent in queue
system.md_knn_datapath.acp_queue_time::19            0                       # Histogram of time ACP request spent in queue
system.md_knn_datapath.acp_queue_time::20            0                       # Histogram of time ACP request spent in queue
system.md_knn_datapath.acp_queue_time::21            0                       # Histogram of time ACP request spent in queue
system.md_knn_datapath.acp_queue_time::22            0                       # Histogram of time ACP request spent in queue
system.md_knn_datapath.acp_queue_time::23            0                       # Histogram of time ACP request spent in queue
system.md_knn_datapath.acp_queue_time::24            0                       # Histogram of time ACP request spent in queue
system.md_knn_datapath.acp_queue_time::25            0                       # Histogram of time ACP request spent in queue
system.md_knn_datapath.acp_queue_time::26            0                       # Histogram of time ACP request spent in queue
system.md_knn_datapath.acp_queue_time::27            0                       # Histogram of time ACP request spent in queue
system.md_knn_datapath.acp_queue_time::28            0                       # Histogram of time ACP request spent in queue
system.md_knn_datapath.acp_queue_time::29            0                       # Histogram of time ACP request spent in queue
system.md_knn_datapath.acp_queue_time::total            0                       # Histogram of time ACP request spent in queue
system.md_knn_datapath.dma_setup_cycles            15                       # Total number of cycles spent on setting up DMA transfers.
system.md_knn_datapath.sim_cycles               54384                       # Total accelerator cycles
system.md_knn_datapath.tlb.hits                 13709                       # TLB hits
system.md_knn_datapath.tlb.misses                  16                       # TLB misses
system.md_knn_datapath.tlb.reads                13725                       # TLB reads
system.md_knn_datapath.tlb.updates                  8                       # TLB updates
system.md_knn_datapath.tlb.hitRate           0.998834                       # TLB hit rate
system.md_knn_datapath.cache.prefetcher.pwrStateResidencyTicks::UNDEFINED    108798000                       # Cumulative time (in ticks) in various power states
system.md_knn_datapath.cache.prefetcher.num_hwpf_issued        13710                       # number of hwpf issued
system.md_knn_datapath.cache.prefetcher.pfIdentified        15696                       # number of prefetch candidates identified
system.md_knn_datapath.cache.prefetcher.pfBufferHit         1721                       # number of redundant prefetches already in prefetch queue
system.md_knn_datapath.cache.prefetcher.pfInCache            0                       # number of redundant prefetches already in cache/mshr dropped
system.md_knn_datapath.cache.prefetcher.pfRemovedFull           10                       # number of prefetches dropped due to prefetch queue size
system.md_knn_datapath.cache.prefetcher.pfSpanPage          576                       # number of prefetches not generated due to page crossing
system.md_knn_datapath.cache.tags.pwrStateResidencyTicks::UNDEFINED    108798000                       # Cumulative time (in ticks) in various power states
system.md_knn_datapath.cache.tags.tagsinuse   434.334419                       # Cycle average of tags in use
system.md_knn_datapath.cache.tags.total_refs        14443                       # Total number of references to valid blocks.
system.md_knn_datapath.cache.tags.sampled_refs          928                       # Sample count of references to valid blocks.
system.md_knn_datapath.cache.tags.avg_refs    15.563578                       # Average number of references to valid blocks.
system.md_knn_datapath.cache.tags.warmup_cycle       192384                       # Cycle when the warmup percentage was hit.
system.md_knn_datapath.cache.tags.occ_blocks::.md_knn_datapath.system.md_knn_datapath.cache   178.987895                       # Average occupied blocks per requestor
system.md_knn_datapath.cache.tags.occ_blocks::.md_knn_datapath.cache.prefetcher   255.346523                       # Average occupied blocks per requestor
system.md_knn_datapath.cache.tags.occ_percent::.md_knn_datapath.system.md_knn_datapath.cache     0.349586                       # Average percentage of cache occupancy
system.md_knn_datapath.cache.tags.occ_percent::.md_knn_datapath.cache.prefetcher     0.498724                       # Average percentage of cache occupancy
system.md_knn_datapath.cache.tags.occ_percent::total     0.848309                       # Average percentage of cache occupancy
system.md_knn_datapath.cache.tags.occ_task_id_blocks::1022          331                       # Occupied blocks per task id
system.md_knn_datapath.cache.tags.occ_task_id_blocks::1024          181                       # Occupied blocks per task id
system.md_knn_datapath.cache.tags.age_task_id_blocks_1022::0           66                       # Occupied blocks per task id
system.md_knn_datapath.cache.tags.age_task_id_blocks_1022::1          250                       # Occupied blocks per task id
system.md_knn_datapath.cache.tags.age_task_id_blocks_1022::2           15                       # Occupied blocks per task id
system.md_knn_datapath.cache.tags.age_task_id_blocks_1024::1            4                       # Occupied blocks per task id
system.md_knn_datapath.cache.tags.age_task_id_blocks_1024::2          177                       # Occupied blocks per task id
system.md_knn_datapath.cache.tags.occ_task_id_percent::1022     0.646484                       # Percentage of cache occupancy per task id
system.md_knn_datapath.cache.tags.occ_task_id_percent::1024     0.353516                       # Percentage of cache occupancy per task id
system.md_knn_datapath.cache.tags.tag_accesses        55764                       # Number of tag accesses
system.md_knn_datapath.cache.tags.data_accesses        55764                       # Number of data accesses
system.md_knn_datapath.cache.pwrStateResidencyTicks::UNDEFINED    108798000                       # Cumulative time (in ticks) in various power states
system.md_knn_datapath.cache.ReadReq_hits::.md_knn_datapath.system.md_knn_datapath.cache        12752                       # number of ReadReq hits
system.md_knn_datapath.cache.ReadReq_hits::total        12752                       # number of ReadReq hits
system.md_knn_datapath.cache.WriteReq_hits::.md_knn_datapath.system.md_knn_datapath.cache          763                       # number of WriteReq hits
system.md_knn_datapath.cache.WriteReq_hits::total          763                       # number of WriteReq hits
system.md_knn_datapath.cache.demand_hits::.md_knn_datapath.system.md_knn_datapath.cache        13515                       # number of demand (read+write) hits
system.md_knn_datapath.cache.demand_hits::total        13515                       # number of demand (read+write) hits
system.md_knn_datapath.cache.overall_hits::.md_knn_datapath.system.md_knn_datapath.cache        13515                       # number of overall hits
system.md_knn_datapath.cache.overall_hits::total        13515                       # number of overall hits
system.md_knn_datapath.cache.ReadReq_misses::.md_knn_datapath.system.md_knn_datapath.cache          189                       # number of ReadReq misses
system.md_knn_datapath.cache.ReadReq_misses::total          189                       # number of ReadReq misses
system.md_knn_datapath.cache.WriteReq_misses::.md_knn_datapath.system.md_knn_datapath.cache            5                       # number of WriteReq misses
system.md_knn_datapath.cache.WriteReq_misses::total            5                       # number of WriteReq misses
system.md_knn_datapath.cache.demand_misses::.md_knn_datapath.system.md_knn_datapath.cache          194                       # number of demand (read+write) misses
system.md_knn_datapath.cache.demand_misses::total          194                       # number of demand (read+write) misses
system.md_knn_datapath.cache.overall_misses::.md_knn_datapath.system.md_knn_datapath.cache          194                       # number of overall misses
system.md_knn_datapath.cache.overall_misses::total          194                       # number of overall misses
system.md_knn_datapath.cache.ReadReq_miss_latency::.md_knn_datapath.system.md_knn_datapath.cache     19020762                       # number of ReadReq miss cycles
system.md_knn_datapath.cache.ReadReq_miss_latency::total     19020762                       # number of ReadReq miss cycles
system.md_knn_datapath.cache.WriteReq_miss_latency::.md_knn_datapath.system.md_knn_datapath.cache       428000                       # number of WriteReq miss cycles
system.md_knn_datapath.cache.WriteReq_miss_latency::total       428000                       # number of WriteReq miss cycles
system.md_knn_datapath.cache.demand_miss_latency::.md_knn_datapath.system.md_knn_datapath.cache     19448762                       # number of demand (read+write) miss cycles
system.md_knn_datapath.cache.demand_miss_latency::total     19448762                       # number of demand (read+write) miss cycles
system.md_knn_datapath.cache.overall_miss_latency::.md_knn_datapath.system.md_knn_datapath.cache     19448762                       # number of overall miss cycles
system.md_knn_datapath.cache.overall_miss_latency::total     19448762                       # number of overall miss cycles
system.md_knn_datapath.cache.ReadReq_accesses::.md_knn_datapath.system.md_knn_datapath.cache        12941                       # number of ReadReq accesses(hits+misses)
system.md_knn_datapath.cache.ReadReq_accesses::total        12941                       # number of ReadReq accesses(hits+misses)
system.md_knn_datapath.cache.WriteReq_accesses::.md_knn_datapath.system.md_knn_datapath.cache          768                       # number of WriteReq accesses(hits+misses)
system.md_knn_datapath.cache.WriteReq_accesses::total          768                       # number of WriteReq accesses(hits+misses)
system.md_knn_datapath.cache.demand_accesses::.md_knn_datapath.system.md_knn_datapath.cache        13709                       # number of demand (read+write) accesses
system.md_knn_datapath.cache.demand_accesses::total        13709                       # number of demand (read+write) accesses
system.md_knn_datapath.cache.overall_accesses::.md_knn_datapath.system.md_knn_datapath.cache        13709                       # number of overall (read+write) accesses
system.md_knn_datapath.cache.overall_accesses::total        13709                       # number of overall (read+write) accesses
system.md_knn_datapath.cache.ReadReq_miss_rate::.md_knn_datapath.system.md_knn_datapath.cache     0.014605                       # miss rate for ReadReq accesses
system.md_knn_datapath.cache.ReadReq_miss_rate::total     0.014605                       # miss rate for ReadReq accesses
system.md_knn_datapath.cache.WriteReq_miss_rate::.md_knn_datapath.system.md_knn_datapath.cache     0.006510                       # miss rate for WriteReq accesses
system.md_knn_datapath.cache.WriteReq_miss_rate::total     0.006510                       # miss rate for WriteReq accesses
system.md_knn_datapath.cache.demand_miss_rate::.md_knn_datapath.system.md_knn_datapath.cache     0.014151                       # miss rate for demand accesses
system.md_knn_datapath.cache.demand_miss_rate::total     0.014151                       # miss rate for demand accesses
system.md_knn_datapath.cache.overall_miss_rate::.md_knn_datapath.system.md_knn_datapath.cache     0.014151                       # miss rate for overall accesses
system.md_knn_datapath.cache.overall_miss_rate::total     0.014151                       # miss rate for overall accesses
system.md_knn_datapath.cache.ReadReq_avg_miss_latency::.md_knn_datapath.system.md_knn_datapath.cache 100638.952381                       # average ReadReq miss latency
system.md_knn_datapath.cache.ReadReq_avg_miss_latency::total 100638.952381                       # average ReadReq miss latency
system.md_knn_datapath.cache.WriteReq_avg_miss_latency::.md_knn_datapath.system.md_knn_datapath.cache        85600                       # average WriteReq miss latency
system.md_knn_datapath.cache.WriteReq_avg_miss_latency::total        85600                       # average WriteReq miss latency
system.md_knn_datapath.cache.demand_avg_miss_latency::.md_knn_datapath.system.md_knn_datapath.cache 100251.350515                       # average overall miss latency
system.md_knn_datapath.cache.demand_avg_miss_latency::total 100251.350515                       # average overall miss latency
system.md_knn_datapath.cache.overall_avg_miss_latency::.md_knn_datapath.system.md_knn_datapath.cache 100251.350515                       # average overall miss latency
system.md_knn_datapath.cache.overall_avg_miss_latency::total 100251.350515                       # average overall miss latency
system.md_knn_datapath.cache.blocked_cycles::no_mshrs          327                       # number of cycles access was blocked
system.md_knn_datapath.cache.blocked_cycles::no_targets            0                       # number of cycles access was blocked
system.md_knn_datapath.cache.blocked::no_mshrs           86                       # number of cycles access was blocked
system.md_knn_datapath.cache.blocked::no_targets            0                       # number of cycles access was blocked
system.md_knn_datapath.cache.avg_blocked_cycles::no_mshrs     3.802326                       # average number of cycles each access was blocked
system.md_knn_datapath.cache.avg_blocked_cycles::no_targets          nan                       # average number of cycles each access was blocked
system.md_knn_datapath.cache.writebacks::.writebacks           99                       # number of writebacks
system.md_knn_datapath.cache.writebacks::total           99                       # number of writebacks
system.md_knn_datapath.cache.ReadReq_mshr_misses::.md_knn_datapath.system.md_knn_datapath.cache          189                       # number of ReadReq MSHR misses
system.md_knn_datapath.cache.ReadReq_mshr_misses::total          189                       # number of ReadReq MSHR misses
system.md_knn_datapath.cache.WriteReq_mshr_misses::.md_knn_datapath.system.md_knn_datapath.cache            5                       # number of WriteReq MSHR misses
system.md_knn_datapath.cache.WriteReq_mshr_misses::total            5                       # number of WriteReq MSHR misses
system.md_knn_datapath.cache.HardPFReq_mshr_misses::.md_knn_datapath.cache.prefetcher          734                       # number of HardPFReq MSHR misses
system.md_knn_datapath.cache.HardPFReq_mshr_misses::total          734                       # number of HardPFReq MSHR misses
system.md_knn_datapath.cache.demand_mshr_misses::.md_knn_datapath.system.md_knn_datapath.cache          194                       # number of demand (read+write) MSHR misses
system.md_knn_datapath.cache.demand_mshr_misses::total          194                       # number of demand (read+write) MSHR misses
system.md_knn_datapath.cache.overall_mshr_misses::.md_knn_datapath.system.md_knn_datapath.cache          194                       # number of overall MSHR misses
system.md_knn_datapath.cache.overall_mshr_misses::.md_knn_datapath.cache.prefetcher          734                       # number of overall MSHR misses
system.md_knn_datapath.cache.overall_mshr_misses::total          928                       # number of overall MSHR misses
system.md_knn_datapath.cache.ReadReq_mshr_miss_latency::.md_knn_datapath.system.md_knn_datapath.cache     18419154                       # number of ReadReq MSHR miss cycles
system.md_knn_datapath.cache.ReadReq_mshr_miss_latency::total     18419154                       # number of ReadReq MSHR miss cycles
system.md_knn_datapath.cache.WriteReq_mshr_miss_latency::.md_knn_datapath.system.md_knn_datapath.cache       415812                       # number of WriteReq MSHR miss cycles
system.md_knn_datapath.cache.WriteReq_mshr_miss_latency::total       415812                       # number of WriteReq MSHR miss cycles
system.md_knn_datapath.cache.HardPFReq_mshr_miss_latency::.md_knn_datapath.cache.prefetcher     58925755                       # number of HardPFReq MSHR miss cycles
system.md_knn_datapath.cache.HardPFReq_mshr_miss_latency::total     58925755                       # number of HardPFReq MSHR miss cycles
system.md_knn_datapath.cache.demand_mshr_miss_latency::.md_knn_datapath.system.md_knn_datapath.cache     18834966                       # number of demand (read+write) MSHR miss cycles
system.md_knn_datapath.cache.demand_mshr_miss_latency::total     18834966                       # number of demand (read+write) MSHR miss cycles
system.md_knn_datapath.cache.overall_mshr_miss_latency::.md_knn_datapath.system.md_knn_datapath.cache     18834966                       # number of overall MSHR miss cycles
system.md_knn_datapath.cache.overall_mshr_miss_latency::.md_knn_datapath.cache.prefetcher     58925755                       # number of overall MSHR miss cycles
system.md_knn_datapath.cache.overall_mshr_miss_latency::total     77760721                       # number of overall MSHR miss cycles
system.md_knn_datapath.cache.ReadReq_mshr_miss_rate::.md_knn_datapath.system.md_knn_datapath.cache     0.014605                       # mshr miss rate for ReadReq accesses
system.md_knn_datapath.cache.ReadReq_mshr_miss_rate::total     0.014605                       # mshr miss rate for ReadReq accesses
system.md_knn_datapath.cache.WriteReq_mshr_miss_rate::.md_knn_datapath.system.md_knn_datapath.cache     0.006510                       # mshr miss rate for WriteReq accesses
system.md_knn_datapath.cache.WriteReq_mshr_miss_rate::total     0.006510                       # mshr miss rate for WriteReq accesses
system.md_knn_datapath.cache.HardPFReq_mshr_miss_rate::.md_knn_datapath.cache.prefetcher          inf                       # mshr miss rate for HardPFReq accesses
system.md_knn_datapath.cache.HardPFReq_mshr_miss_rate::total          inf                       # mshr miss rate for HardPFReq accesses
system.md_knn_datapath.cache.demand_mshr_miss_rate::.md_knn_datapath.system.md_knn_datapath.cache     0.014151                       # mshr miss rate for demand accesses
system.md_knn_datapath.cache.demand_mshr_miss_rate::total     0.014151                       # mshr miss rate for demand accesses
system.md_knn_datapath.cache.overall_mshr_miss_rate::.md_knn_datapath.system.md_knn_datapath.cache     0.014151                       # mshr miss rate for overall accesses
system.md_knn_datapath.cache.overall_mshr_miss_rate::.md_knn_datapath.cache.prefetcher          inf                       # mshr miss rate for overall accesses
system.md_knn_datapath.cache.overall_mshr_miss_rate::total     0.067693                       # mshr miss rate for overall accesses
system.md_knn_datapath.cache.ReadReq_avg_mshr_miss_latency::.md_knn_datapath.system.md_knn_datapath.cache 97455.841270                       # average ReadReq mshr miss latency
system.md_knn_datapath.cache.ReadReq_avg_mshr_miss_latency::total 97455.841270                       # average ReadReq mshr miss latency
system.md_knn_datapath.cache.WriteReq_avg_mshr_miss_latency::.md_knn_datapath.system.md_knn_datapath.cache 83162.400000                       # average WriteReq mshr miss latency
system.md_knn_datapath.cache.WriteReq_avg_mshr_miss_latency::total 83162.400000                       # average WriteReq mshr miss latency
system.md_knn_datapath.cache.HardPFReq_avg_mshr_miss_latency::.md_knn_datapath.cache.prefetcher 80280.320163                       # average HardPFReq mshr miss latency
system.md_knn_datapath.cache.HardPFReq_avg_mshr_miss_latency::total 80280.320163                       # average HardPFReq mshr miss latency
system.md_knn_datapath.cache.demand_avg_mshr_miss_latency::.md_knn_datapath.system.md_knn_datapath.cache 97087.453608                       # average overall mshr miss latency
system.md_knn_datapath.cache.demand_avg_mshr_miss_latency::total 97087.453608                       # average overall mshr miss latency
system.md_knn_datapath.cache.overall_avg_mshr_miss_latency::.md_knn_datapath.system.md_knn_datapath.cache 97087.453608                       # average overall mshr miss latency
system.md_knn_datapath.cache.overall_avg_mshr_miss_latency::.md_knn_datapath.cache.prefetcher 80280.320163                       # average overall mshr miss latency
system.md_knn_datapath.cache.overall_avg_mshr_miss_latency::total 83793.880388                       # average overall mshr miss latency
system.md_knn_datapath.cache.replacements          416                       # number of replacements
system.membus.snoop_filter.tot_requests          1344                       # Total number of requests made to the snoop filter.
system.membus.snoop_filter.hit_single_requests          416                       # Number of requests hitting in the snoop filter with a single holder of the requested data.
system.membus.snoop_filter.hit_multi_requests            0                       # Number of requests hitting in the snoop filter with multiple (>1) holders of the requested data.
system.membus.snoop_filter.tot_snoops               0                       # Total number of snoops made to the snoop filter.
system.membus.snoop_filter.hit_single_snoops            0                       # Number of snoops hitting in the snoop filter with a single holder of the requested data.
system.membus.snoop_filter.hit_multi_snoops            0                       # Number of snoops hitting in the snoop filter with multiple (>1) holders of the requested data.
system.membus.pwrStateResidencyTicks::UNDEFINED    108798000                       # Cumulative time (in ticks) in various power states
system.membus.trans_dist::ReadResp                923                       # Transaction distribution
system.membus.trans_dist::WritebackDirty           99                       # Transaction distribution
system.membus.trans_dist::CleanEvict              317                       # Transaction distribution
system.membus.trans_dist::ReadExReq                 5                       # Transaction distribution
system.membus.trans_dist::ReadExResp                5                       # Transaction distribution
system.membus.trans_dist::ReadSharedReq           923                       # Transaction distribution
system.membus.pkt_count_system.md_knn_datapath.cache.mem_side::system.mem_ctrls.port         2272                       # Packet count per connected master and slave (bytes)
system.membus.pkt_count::total                   2272                       # Packet count per connected master and slave (bytes)
system.membus.pkt_size_system.md_knn_datapath.cache.mem_side::system.mem_ctrls.port        32864                       # Cumulative packet size per connected master and slave (bytes)
system.membus.pkt_size::total                   32864                       # Cumulative packet size per connected master and slave (bytes)
system.membus.snoops                                0                       # Total snoops (count)
system.membus.snoopTraffic                          0                       # Total snoop traffic (bytes)
system.membus.snoop_fanout::samples               928                       # Request fanout histogram
system.membus.snoop_fanout::mean                    0                       # Request fanout histogram
system.membus.snoop_fanout::stdev                   0                       # Request fanout histogram
system.membus.snoop_fanout::underflows              0      0.00%      0.00% # Request fanout histogram
system.membus.snoop_fanout::0                     928    100.00%    100.00% # Request fanout histogram
system.membus.snoop_fanout::1                       0      0.00%    100.00% # Request fanout histogram
system.membus.snoop_fanout::2                       0      0.00%    100.00% # Request fanout histogram
system.membus.snoop_fanout::overflows               0      0.00%    100.00% # Request fanout histogram
system.membus.snoop_fanout::min_value               0                       # Request fanout histogram
system.membus.snoop_fanout::max_value               0                       # Request fanout histogram
system.membus.snoop_fanout::total                 928                       # Request fanout histogram
system.membus.reqLayer0.occupancy             3862880                       # Layer occupancy (ticks)
system.membus.reqLayer0.utilization               3.6                       # Layer utilization (%)
system.membus.respLayer1.occupancy            6021921                       # Layer occupancy (ticks)
system.membus.respLayer1.utilization              5.5                       # Layer utilization (%)

---------- End Simulation Statistics   ----------
