gem5 Simulator System.  http://gem5.org
gem5 is copyrighted software; use the --copyright option for details.

gem5 compiled Jun  2 2019 14:47:48
gem5 started Jun 11 2019 01:20:11
gem5 executing on 5e24d8f23dc5, pid 18631
command line: /workspace/gem5-aladdin/build/X86/gem5.opt --stats-db-file=stats.db --outdir=/workspace/gem5-aladdin/sweeps/machsuite/stencil_stencil3d/0/outputs /workspace/gem5-aladdin/configs/aladdin/aladdin_se.py --num-cpus=0 --mem-size=4GB --enable-stats-dump --enable_prefetchers --prefetcher-type=stride --mem-type=DDR3_1600_8x8 --sys-clock=499MHz --cpu-type=DerivO3CPU --caches --cacheline_size=32 --accel_cfg_file=/workspace/gem5-aladdin/sweeps/machsuite/stencil_stencil3d/0/gem5.cfg -c stencil-stencil3d-gem5-accel -o ''

Global frequency set at 1000000000000 ticks per second
-------------------------------
      Setting ScratchPad       
-------------------------------
-------------------------------
      Generating DDDG          
-------------------------------
-------------------------------
Num of Nodes: 514368
Num of Edges: 1239420
Num of Reg Edges: 725053
Num of MEM Edges: 0
Num of Control Edges: 514367
-------------------------------
-------------------------------
    Initializing BaseDatapath      
-------------------------------
 Top level: stencil3d
=============================================
      Optimizing...            /workspace/gem5-aladdin/sweeps/machsuite/stencil_stencil3d/0/outputs/stencil_stencil3d
=============================================
-------------------------------
  Remove PHI and Convert Nodes 
-------------------------------
  Removing 165554 edges.
  Adding 138774 new edges.
  Removing 0 isolated nodes.
-------------------------------
  Remove Induction Dependence  
-------------------------------
-------------------------------
       Init Base Address       
-------------------------------
-------------------------------
     Init DMA Base Address     
-------------------------------
-------------------------------
        Mem to Reg Conv        
-------------------------------
-------------------------------
      ScratchPad Partition     
-------------------------------
-------------------------------
         Loop Flatten          
-------------------------------
  Removing 15484 isolated nodes.
  Removing 0 isolated nodes.
-------------------------------
         Loop Unrolling        
-------------------------------
  Adding 987682 new edges.
  Removing 0 isolated nodes.
  Removing 0 isolated nodes.
-------------------------------
          Load Buffer          
-------------------------------
  Adding 46800 new edges.
  Removing 234000 edges.
  Removing 0 isolated nodes.
-------------------------------
          Store Buffer         
-------------------------------
  Adding 0 new edges.
  Removing 0 isolated nodes.
  Removing 0 isolated nodes.
-------------------------------
    Remove Repeated Stores     
-------------------------------
-------------------------------
      Memory Ambiguation       
-------------------------------
  Adding 0 new edges.
-------------------------------
     Tree Height Reduction     
-------------------------------
  Removing 126000 edges.
  Adding 126000 new edges.
  Removing 0 isolated nodes.
-------------------------------
  Fuse register loads/stores   
-------------------------------
  Removing 0 edges.
  Adding 0 new edges.
  Removing 0 isolated nodes.
-------------------------------
   Fuse consecutive branches   
-------------------------------
  Removing 15484 edges.
  Adding 15484 new edges.
  Removing 0 isolated nodes.
-------------------------------
      Per Loop Pipelining      
-------------------------------
-------------------------------
         Loop Pipelining        
-------------------------------
=============================================
      Scheduling...            /workspace/gem5-aladdin/sweeps/machsuite/stencil_stencil3d/0/outputs/stencil_stencil3d
=============================================
  Total connected nodes: 447554
  Total edges: 1963135
=============================================
**** REAL SIMULATION ****
===============================
        Aladdin Results        
===============================
Running : /workspace/gem5-aladdin/sweeps/machsuite/stencil_stencil3d/0/outputs/stencil_stencil3d
Top level function: stencil3d
Cycle : 108400 cycles
Avg Power: 8.79152 mW
Idle FU Cycles: 94340 cycles
Avg FU Power: 2.55684 mW
Avg FU Dynamic Power: 1.71679 mW
Avg FU leakage Power: 0.840047 mW
Avg MEM Power: 6.23469 mW
Avg MEM Dynamic Power: 4.94192 mW
Avg MEM Leakage Power: 1.29277 mW
Total Area: 382605 uM^2
FU Area: 80163.5 uM^2
MEM Area: 302442 uM^2
Num of Multipliers (32-bit): 8
Num of Adders (32-bit): 84
Num of Bit-wise Operators (32-bit): 30
Num of Shifters (32-bit): 31
Num of Registers (32-bit): 77
===============================
        Aladdin Results        
===============================
-------------------------------
      Generating DDDG          
-------------------------------
-------------------------------
Reached end of trace.
-------------------------------
Exiting @ tick 216800000 because Aladdin called exit()
