
---------- Begin Simulation Statistics ----------
sim_seconds                                  0.001783                       # Number of seconds simulated
sim_ticks                                  1782708000                       # Number of ticks simulated
final_tick                                 1782708000                       # Number of ticks from beginning of simulation (restored from checkpoints and never reset)
sim_freq                                 1000000000000                       # Frequency of simulated ticks
host_tick_rate                              309249041                       # Simulator tick rate (ticks/s)
host_mem_usage                                5510896                       # Number of bytes of host memory used
host_seconds                                     5.76                       # Real time elapsed on the host
system.voltage_domain.voltage                       1                       # Voltage in Volts
system.clk_domain.clock                          2004                       # Clock period in ticks
system.mem_ctrls.pwrStateResidencyTicks::UNDEFINED   1782708000                       # Cumulative time (in ticks) in various power states
system.mem_ctrls.bytes_read::.kmp_kmp_datapath.system.kmp_kmp_datapath.cache          288                       # Number of bytes read from this memory
system.mem_ctrls.bytes_read::.kmp_kmp_datapath.cache.prefetcher        32384                       # Number of bytes read from this memory
system.mem_ctrls.bytes_read::total              32672                       # Number of bytes read from this memory
system.mem_ctrls.num_reads::.kmp_kmp_datapath.system.kmp_kmp_datapath.cache            9                       # Number of read requests responded to by this memory
system.mem_ctrls.num_reads::.kmp_kmp_datapath.cache.prefetcher         1012                       # Number of read requests responded to by this memory
system.mem_ctrls.num_reads::total                1021                       # Number of read requests responded to by this memory
system.mem_ctrls.bw_read::.kmp_kmp_datapath.system.kmp_kmp_datapath.cache       161552                       # Total read bandwidth from this memory (bytes/s)
system.mem_ctrls.bw_read::.kmp_kmp_datapath.cache.prefetcher     18165622                       # Total read bandwidth from this memory (bytes/s)
system.mem_ctrls.bw_read::total              18327174                       # Total read bandwidth from this memory (bytes/s)
system.mem_ctrls.bw_total::.kmp_kmp_datapath.system.kmp_kmp_datapath.cache       161552                       # Total bandwidth to/from this memory (bytes/s)
system.mem_ctrls.bw_total::.kmp_kmp_datapath.cache.prefetcher     18165622                       # Total bandwidth to/from this memory (bytes/s)
system.mem_ctrls.bw_total::total             18327174                       # Total bandwidth to/from this memory (bytes/s)
system.mem_ctrls.avgPriority_.kmp_kmp_datapath.system.kmp_kmp_datapath.cache::samples         9.00                       # Average QoS priority value for accepted requests
system.mem_ctrls.avgPriority_.kmp_kmp_datapath.cache.prefetcher::samples      1012.00                       # Average QoS priority value for accepted requests
system.mem_ctrls.priorityMinLatency      0.000000024750                       # per QoS priority minimum request to response latency (s)
system.mem_ctrls.priorityMaxLatency      0.000001140898                       # per QoS priority maximum request to response latency (s)
system.mem_ctrls.numReadWriteTurnArounds            0                       # Number of turnarounds from READ to WRITE
system.mem_ctrls.numWriteReadTurnArounds            0                       # Number of turnarounds from WRITE to READ
system.mem_ctrls.numStayReadState                2265                       # Number of times bus staying in READ state
system.mem_ctrls.numStayWriteState                  0                       # Number of times bus staying in WRITE state
system.mem_ctrls.readReqs                        1021                       # Number of read requests accepted
system.mem_ctrls.writeReqs                          0                       # Number of write requests accepted
system.mem_ctrls.readBursts                      1021                       # Number of DRAM read bursts, including those serviced by the write queue
system.mem_ctrls.writeBursts                        0                       # Number of DRAM write bursts, including those merged in the write queue
system.mem_ctrls.bytesReadDRAM                  65344                       # Total number of bytes read from DRAM
system.mem_ctrls.bytesReadWrQ                       0                       # Total number of bytes read from write queue
system.mem_ctrls.bytesWritten                       0                       # Total number of bytes written to DRAM
system.mem_ctrls.bytesReadSys                   32672                       # Total read bytes from the system interface side
system.mem_ctrls.bytesWrittenSys                    0                       # Total written bytes from the system interface side
system.mem_ctrls.servicedByWrQ                      0                       # Number of DRAM read bursts serviced by the write queue
system.mem_ctrls.mergedWrBursts                     0                       # Number of DRAM write bursts merged with an existing one
system.mem_ctrls.neitherReadNorWriteReqs            0                       # Number of requests that are neither read nor write
system.mem_ctrls.perBankRdBursts::0                 0                       # Per bank write bursts
system.mem_ctrls.perBankRdBursts::1                 0                       # Per bank write bursts
system.mem_ctrls.perBankRdBursts::2                 0                       # Per bank write bursts
system.mem_ctrls.perBankRdBursts::3               168                       # Per bank write bursts
system.mem_ctrls.perBankRdBursts::4               256                       # Per bank write bursts
system.mem_ctrls.perBankRdBursts::5               256                       # Per bank write bursts
system.mem_ctrls.perBankRdBursts::6               256                       # Per bank write bursts
system.mem_ctrls.perBankRdBursts::7                85                       # Per bank write bursts
system.mem_ctrls.perBankRdBursts::8                 0                       # Per bank write bursts
system.mem_ctrls.perBankRdBursts::9                 0                       # Per bank write bursts
system.mem_ctrls.perBankRdBursts::10                0                       # Per bank write bursts
system.mem_ctrls.perBankRdBursts::11                0                       # Per bank write bursts
system.mem_ctrls.perBankRdBursts::12                0                       # Per bank write bursts
system.mem_ctrls.perBankRdBursts::13                0                       # Per bank write bursts
system.mem_ctrls.perBankRdBursts::14                0                       # Per bank write bursts
system.mem_ctrls.perBankRdBursts::15                0                       # Per bank write bursts
system.mem_ctrls.perBankWrBursts::0                 0                       # Per bank write bursts
system.mem_ctrls.perBankWrBursts::1                 0                       # Per bank write bursts
system.mem_ctrls.perBankWrBursts::2                 0                       # Per bank write bursts
system.mem_ctrls.perBankWrBursts::3                 0                       # Per bank write bursts
system.mem_ctrls.perBankWrBursts::4                 0                       # Per bank write bursts
system.mem_ctrls.perBankWrBursts::5                 0                       # Per bank write bursts
system.mem_ctrls.perBankWrBursts::6                 0                       # Per bank write bursts
system.mem_ctrls.perBankWrBursts::7                 0                       # Per bank write bursts
system.mem_ctrls.perBankWrBursts::8                 0                       # Per bank write bursts
system.mem_ctrls.perBankWrBursts::9                 0                       # Per bank write bursts
system.mem_ctrls.perBankWrBursts::10                0                       # Per bank write bursts
system.mem_ctrls.perBankWrBursts::11                0                       # Per bank write bursts
system.mem_ctrls.perBankWrBursts::12                0                       # Per bank write bursts
system.mem_ctrls.perBankWrBursts::13                0                       # Per bank write bursts
system.mem_ctrls.perBankWrBursts::14                0                       # Per bank write bursts
system.mem_ctrls.perBankWrBursts::15                0                       # Per bank write bursts
system.mem_ctrls.numRdRetry                         0                       # Number of times read queue was full causing retry
system.mem_ctrls.numWrRetry                         0                       # Number of times write queue was full causing retry
system.mem_ctrls.totGap                    1780934006                       # Total gap between requests
system.mem_ctrls.readPktSize::0                     0                       # Read request sizes (log2)
system.mem_ctrls.readPktSize::1                     0                       # Read request sizes (log2)
system.mem_ctrls.readPktSize::2                     0                       # Read request sizes (log2)
system.mem_ctrls.readPktSize::3                     0                       # Read request sizes (log2)
system.mem_ctrls.readPktSize::4                     0                       # Read request sizes (log2)
system.mem_ctrls.readPktSize::5                  1021                       # Read request sizes (log2)
system.mem_ctrls.readPktSize::6                     0                       # Read request sizes (log2)
system.mem_ctrls.writePktSize::0                    0                       # Write request sizes (log2)
system.mem_ctrls.writePktSize::1                    0                       # Write request sizes (log2)
system.mem_ctrls.writePktSize::2                    0                       # Write request sizes (log2)
system.mem_ctrls.writePktSize::3                    0                       # Write request sizes (log2)
system.mem_ctrls.writePktSize::4                    0                       # Write request sizes (log2)
system.mem_ctrls.writePktSize::5                    0                       # Write request sizes (log2)
system.mem_ctrls.writePktSize::6                    0                       # Write request sizes (log2)
system.mem_ctrls.rdQLenPdf::0                     950                       # What read queue length does an incoming req see
system.mem_ctrls.rdQLenPdf::1                       9                       # What read queue length does an incoming req see
system.mem_ctrls.rdQLenPdf::2                       9                       # What read queue length does an incoming req see
system.mem_ctrls.rdQLenPdf::3                       9                       # What read queue length does an incoming req see
system.mem_ctrls.rdQLenPdf::4                       9                       # What read queue length does an incoming req see
system.mem_ctrls.rdQLenPdf::5                       9                       # What read queue length does an incoming req see
system.mem_ctrls.rdQLenPdf::6                       9                       # What read queue length does an incoming req see
system.mem_ctrls.rdQLenPdf::7                       9                       # What read queue length does an incoming req see
system.mem_ctrls.rdQLenPdf::8                       8                       # What read queue length does an incoming req see
system.mem_ctrls.rdQLenPdf::9                       0                       # What read queue length does an incoming req see
system.mem_ctrls.rdQLenPdf::10                      0                       # What read queue length does an incoming req see
system.mem_ctrls.rdQLenPdf::11                      0                       # What read queue length does an incoming req see
system.mem_ctrls.rdQLenPdf::12                      0                       # What read queue length does an incoming req see
system.mem_ctrls.rdQLenPdf::13                      0                       # What read queue length does an incoming req see
system.mem_ctrls.rdQLenPdf::14                      0                       # What read queue length does an incoming req see
system.mem_ctrls.rdQLenPdf::15                      0                       # What read queue length does an incoming req see
system.mem_ctrls.rdQLenPdf::16                      0                       # What read queue length does an incoming req see
system.mem_ctrls.rdQLenPdf::17                      0                       # What read queue length does an incoming req see
system.mem_ctrls.rdQLenPdf::18                      0                       # What read queue length does an incoming req see
system.mem_ctrls.rdQLenPdf::19                      0                       # What read queue length does an incoming req see
system.mem_ctrls.rdQLenPdf::20                      0                       # What read queue length does an incoming req see
system.mem_ctrls.rdQLenPdf::21                      0                       # What read queue length does an incoming req see
system.mem_ctrls.rdQLenPdf::22                      0                       # What read queue length does an incoming req see
system.mem_ctrls.rdQLenPdf::23                      0                       # What read queue length does an incoming req see
system.mem_ctrls.rdQLenPdf::24                      0                       # What read queue length does an incoming req see
system.mem_ctrls.rdQLenPdf::25                      0                       # What read queue length does an incoming req see
system.mem_ctrls.rdQLenPdf::26                      0                       # What read queue length does an incoming req see
system.mem_ctrls.rdQLenPdf::27                      0                       # What read queue length does an incoming req see
system.mem_ctrls.rdQLenPdf::28                      0                       # What read queue length does an incoming req see
system.mem_ctrls.rdQLenPdf::29                      0                       # What read queue length does an incoming req see
system.mem_ctrls.rdQLenPdf::30                      0                       # What read queue length does an incoming req see
system.mem_ctrls.rdQLenPdf::31                      0                       # What read queue length does an incoming req see
system.mem_ctrls.wrQLenPdf::0                       0                       # What write queue length does an incoming req see
system.mem_ctrls.wrQLenPdf::1                       0                       # What write queue length does an incoming req see
system.mem_ctrls.wrQLenPdf::2                       0                       # What write queue length does an incoming req see
system.mem_ctrls.wrQLenPdf::3                       0                       # What write queue length does an incoming req see
system.mem_ctrls.wrQLenPdf::4                       0                       # What write queue length does an incoming req see
system.mem_ctrls.wrQLenPdf::5                       0                       # What write queue length does an incoming req see
system.mem_ctrls.wrQLenPdf::6                       0                       # What write queue length does an incoming req see
system.mem_ctrls.wrQLenPdf::7                       0                       # What write queue length does an incoming req see
system.mem_ctrls.wrQLenPdf::8                       0                       # What write queue length does an incoming req see
system.mem_ctrls.wrQLenPdf::9                       0                       # What write queue length does an incoming req see
system.mem_ctrls.wrQLenPdf::10                      0                       # What write queue length does an incoming req see
system.mem_ctrls.wrQLenPdf::11                      0                       # What write queue length does an incoming req see
system.mem_ctrls.wrQLenPdf::12                      0                       # What write queue length does an incoming req see
system.mem_ctrls.wrQLenPdf::13                      0                       # What write queue length does an incoming req see
system.mem_ctrls.wrQLenPdf::14                      0                       # What write queue length does an incoming req see
system.mem_ctrls.wrQLenPdf::15                      0                       # What write queue length does an incoming req see
system.mem_ctrls.wrQLenPdf::16                      0                       # What write queue length does an incoming req see
system.mem_ctrls.wrQLenPdf::17                      0                       # What write queue length does an incoming req see
system.mem_ctrls.wrQLenPdf::18                      0                       # What write queue length does an incoming req see
system.mem_ctrls.wrQLenPdf::19                      0                       # What write queue length does an incoming req see
system.mem_ctrls.wrQLenPdf::20                      0                       # What write queue length does an incoming req see
system.mem_ctrls.wrQLenPdf::21                      0                       # What write queue length does an incoming req see
system.mem_ctrls.wrQLenPdf::22                      0                       # What write queue length does an incoming req see
system.mem_ctrls.wrQLenPdf::23                      0                       # What write queue length does an incoming req see
system.mem_ctrls.wrQLenPdf::24                      0                       # What write queue length does an incoming req see
system.mem_ctrls.wrQLenPdf::25                      0                       # What write queue length does an incoming req see
system.mem_ctrls.wrQLenPdf::26                      0                       # What write queue length does an incoming req see
system.mem_ctrls.wrQLenPdf::27                      0                       # What write queue length does an incoming req see
system.mem_ctrls.wrQLenPdf::28                      0                       # What write queue length does an incoming req see
system.mem_ctrls.wrQLenPdf::29                      0                       # What write queue length does an incoming req see
system.mem_ctrls.wrQLenPdf::30                      0                       # What write queue length does an incoming req see
system.mem_ctrls.wrQLenPdf::31                      0                       # What write queue length does an incoming req see
system.mem_ctrls.wrQLenPdf::32                      0                       # What write queue length does an incoming req see
system.mem_ctrls.wrQLenPdf::33                      0                       # What write queue length does an incoming req see
system.mem_ctrls.wrQLenPdf::34                      0                       # What write queue length does an incoming req see
system.mem_ctrls.wrQLenPdf::35                      0                       # What write queue length does an incoming req see
system.mem_ctrls.wrQLenPdf::36                      0                       # What write queue length does an incoming req see
system.mem_ctrls.wrQLenPdf::37                      0                       # What write queue length does an incoming req see
system.mem_ctrls.wrQLenPdf::38                      0                       # What write queue length does an incoming req see
system.mem_ctrls.wrQLenPdf::39                      0                       # What write queue length does an incoming req see
system.mem_ctrls.wrQLenPdf::40                      0                       # What write queue length does an incoming req see
system.mem_ctrls.wrQLenPdf::41                      0                       # What write queue length does an incoming req see
system.mem_ctrls.wrQLenPdf::42                      0                       # What write queue length does an incoming req see
system.mem_ctrls.wrQLenPdf::43                      0                       # What write queue length does an incoming req see
system.mem_ctrls.wrQLenPdf::44                      0                       # What write queue length does an incoming req see
system.mem_ctrls.wrQLenPdf::45                      0                       # What write queue length does an incoming req see
system.mem_ctrls.wrQLenPdf::46                      0                       # What write queue length does an incoming req see
system.mem_ctrls.wrQLenPdf::47                      0                       # What write queue length does an incoming req see
system.mem_ctrls.wrQLenPdf::48                      0                       # What write queue length does an incoming req see
system.mem_ctrls.wrQLenPdf::49                      0                       # What write queue length does an incoming req see
system.mem_ctrls.wrQLenPdf::50                      0                       # What write queue length does an incoming req see
system.mem_ctrls.wrQLenPdf::51                      0                       # What write queue length does an incoming req see
system.mem_ctrls.wrQLenPdf::52                      0                       # What write queue length does an incoming req see
system.mem_ctrls.wrQLenPdf::53                      0                       # What write queue length does an incoming req see
system.mem_ctrls.wrQLenPdf::54                      0                       # What write queue length does an incoming req see
system.mem_ctrls.wrQLenPdf::55                      0                       # What write queue length does an incoming req see
system.mem_ctrls.wrQLenPdf::56                      0                       # What write queue length does an incoming req see
system.mem_ctrls.wrQLenPdf::57                      0                       # What write queue length does an incoming req see
system.mem_ctrls.wrQLenPdf::58                      0                       # What write queue length does an incoming req see
system.mem_ctrls.wrQLenPdf::59                      0                       # What write queue length does an incoming req see
system.mem_ctrls.wrQLenPdf::60                      0                       # What write queue length does an incoming req see
system.mem_ctrls.wrQLenPdf::61                      0                       # What write queue length does an incoming req see
system.mem_ctrls.wrQLenPdf::62                      0                       # What write queue length does an incoming req see
system.mem_ctrls.wrQLenPdf::63                      0                       # What write queue length does an incoming req see
system.mem_ctrls.bytesPerActivate::samples          214                       # Bytes accessed per row activation
system.mem_ctrls.bytesPerActivate::mean    305.046729                       # Bytes accessed per row activation
system.mem_ctrls.bytesPerActivate::gmean   292.347612                       # Bytes accessed per row activation
system.mem_ctrls.bytesPerActivate::stdev   115.882196                       # Bytes accessed per row activation
system.mem_ctrls.bytesPerActivate::64-127            1      0.47%      0.47% # Bytes accessed per row activation
system.mem_ctrls.bytesPerActivate::256-319          118     55.14%     55.61% # Bytes accessed per row activation
system.mem_ctrls.bytesPerActivate::320-383           86     40.19%     95.79% # Bytes accessed per row activation
system.mem_ctrls.bytesPerActivate::832-895            9      4.21%    100.00% # Bytes accessed per row activation
system.mem_ctrls.bytesPerActivate::total          214                       # Bytes accessed per row activation
system.mem_ctrls.masterReadBytes::.kmp_kmp_datapath.system.kmp_kmp_datapath.cache          288                       # Per-master bytes read from memory
system.mem_ctrls.masterReadBytes::.kmp_kmp_datapath.cache.prefetcher        32384                       # Per-master bytes read from memory
system.mem_ctrls.masterReadRate::.kmp_kmp_datapath.system.kmp_kmp_datapath.cache 161551.975982606236                       # Per-master bytes read from memory rate (Bytes/sec)
system.mem_ctrls.masterReadRate::.kmp_kmp_datapath.cache.prefetcher 18165622.188266389072                       # Per-master bytes read from memory rate (Bytes/sec)
system.mem_ctrls.masterReadAccesses::.kmp_kmp_datapath.system.kmp_kmp_datapath.cache            9                       # Per-master read serviced memory accesses
system.mem_ctrls.masterReadAccesses::.kmp_kmp_datapath.cache.prefetcher         1012                       # Per-master read serviced memory accesses
system.mem_ctrls.masterReadTotalLat::.kmp_kmp_datapath.system.kmp_kmp_datapath.cache      4590500                       # Per-master read total memory access latency
system.mem_ctrls.masterReadTotalLat::.kmp_kmp_datapath.cache.prefetcher     67012836                       # Per-master read total memory access latency
system.mem_ctrls.masterReadAvgLat::.kmp_kmp_datapath.system.kmp_kmp_datapath.cache    510055.56                       # Per-master read average memory access latency
system.mem_ctrls.masterReadAvgLat::.kmp_kmp_datapath.cache.prefetcher     66218.22                       # Per-master read average memory access latency
system.mem_ctrls.totQLat                     52459586                       # Total ticks spent queuing
system.mem_ctrls.totMemAccLat                71603336                       # Total ticks spent from burst creation until serviced by the DRAM
system.mem_ctrls.totBusLat                    5105000                       # Total ticks spent in databus transfers
system.mem_ctrls.avgQLat                     51380.59                       # Average queueing delay per DRAM burst
system.mem_ctrls.avgBusLat                    5000.00                       # Average bus latency per DRAM burst
system.mem_ctrls.avgMemAccLat                70130.59                       # Average memory access latency per DRAM burst
system.mem_ctrls.avgRdBW                        36.65                       # Average DRAM read bandwidth in MiByte/s
system.mem_ctrls.avgWrBW                         0.00                       # Average achieved write bandwidth in MiByte/s
system.mem_ctrls.avgRdBWSys                     18.33                       # Average system read bandwidth in MiByte/s
system.mem_ctrls.avgWrBWSys                      0.00                       # Average system write bandwidth in MiByte/s
system.mem_ctrls.peakBW                      12800.00                       # Theoretical peak bandwidth in MiByte/s
system.mem_ctrls.busUtil                         0.29                       # Data bus utilization in percentage
system.mem_ctrls.busUtilRead                     0.29                       # Data bus utilization in percentage for reads
system.mem_ctrls.busUtilWrite                    0.00                       # Data bus utilization in percentage for writes
system.mem_ctrls.avgRdQLen                       1.09                       # Average read queue length when enqueuing
system.mem_ctrls.avgWrQLen                       0.00                       # Average write queue length when enqueuing
system.mem_ctrls.readRowHits                      806                       # Number of row buffer hits during reads
system.mem_ctrls.writeRowHits                       0                       # Number of row buffer hits during writes
system.mem_ctrls.readRowHitRate                 78.94                       # Row buffer hit rate for reads
system.mem_ctrls.writeRowHitRate                  nan                       # Row buffer hit rate for writes
system.mem_ctrls.avgGap                    1744303.63                       # Average gap between requests
system.mem_ctrls.pageHitRate                    78.94                       # Row buffer hit rate, read and write combined
system.mem_ctrls_0.actEnergy                  1535100                       # Energy for activate commands per rank (pJ)
system.mem_ctrls_0.preEnergy                   812130                       # Energy for precharge commands per rank (pJ)
system.mem_ctrls_0.readEnergy                 7289940                       # Energy for read commands per rank (pJ)
system.mem_ctrls_0.writeEnergy                      0                       # Energy for write commands per rank (pJ)
system.mem_ctrls_0.refreshEnergy         136450080.000000                       # Energy for refresh commands per rank (pJ)
system.mem_ctrls_0.actBackEnergy             37133790                       # Energy for active background per rank (pJ)
system.mem_ctrls_0.preBackEnergy              3693120                       # Energy for precharge background per rank (pJ)
system.mem_ctrls_0.actPowerDownEnergy       657908820                       # Energy for active power-down per rank (pJ)
system.mem_ctrls_0.prePowerDownEnergy        76658880                       # Energy for precharge power-down per rank (pJ)
system.mem_ctrls_0.selfRefreshEnergy         16236120                       # Energy for self refresh per rank (pJ)
system.mem_ctrls_0.totalEnergy              937717980                       # Total energy per rank (pJ)
system.mem_ctrls_0.averagePower            526.007613                       # Core power per rank (mW)
system.mem_ctrls_0.totalIdleTime           1690017506                       # Total Idle time Per DRAM Rank
system.mem_ctrls_0.memoryStateTime::IDLE      3638000                       # Time in different power states
system.mem_ctrls_0.memoryStateTime::REF      57720000                       # Time in different power states
system.mem_ctrls_0.memoryStateTime::SREF     49240750                       # Time in different power states
system.mem_ctrls_0.memoryStateTime::PRE_PDN    199555592                       # Time in different power states
system.mem_ctrls_0.memoryStateTime::ACT      29743000                       # Time in different power states
system.mem_ctrls_0.memoryStateTime::ACT_PDN   1442810658                       # Time in different power states
system.mem_ctrls_1.actEnergy                        0                       # Energy for activate commands per rank (pJ)
system.mem_ctrls_1.preEnergy                        0                       # Energy for precharge commands per rank (pJ)
system.mem_ctrls_1.readEnergy                       0                       # Energy for read commands per rank (pJ)
system.mem_ctrls_1.writeEnergy                      0                       # Energy for write commands per rank (pJ)
system.mem_ctrls_1.refreshEnergy         614640.000000                       # Energy for refresh commands per rank (pJ)
system.mem_ctrls_1.actBackEnergy               112290                       # Energy for active background per rank (pJ)
system.mem_ctrls_1.preBackEnergy              2997600                       # Energy for precharge background per rank (pJ)
system.mem_ctrls_1.actPowerDownEnergy               0                       # Energy for active power-down per rank (pJ)
system.mem_ctrls_1.prePowerDownEnergy         2890080                       # Energy for precharge power-down per rank (pJ)
system.mem_ctrls_1.selfRefreshEnergy        424663440                       # Energy for self refresh per rank (pJ)
system.mem_ctrls_1.totalEnergy              431278050                       # Total energy per rank (pJ)
system.mem_ctrls_1.averagePower            241.922990                       # Core power per rank (mW)
system.mem_ctrls_1.totalIdleTime              7526250                       # Total Idle time Per DRAM Rank
system.mem_ctrls_1.memoryStateTime::IDLE      7792250                       # Time in different power states
system.mem_ctrls_1.memoryStateTime::REF        260000                       # Time in different power states
system.mem_ctrls_1.memoryStateTime::SREF   1767129500                       # Time in different power states
system.mem_ctrls_1.memoryStateTime::PRE_PDN      7526250                       # Time in different power states
system.mem_ctrls_1.memoryStateTime::ACT             0                       # Time in different power states
system.mem_ctrls_1.memoryStateTime::ACT_PDN            0                       # Time in different power states
system.pwrStateResidencyTicks::UNDEFINED   1782708000                       # Cumulative time (in ticks) in various power states
system.cpu_voltage_domain.voltage                   1                       # Voltage in Volts
system.cpu_clk_domain.clock                       500                       # Clock period in ticks
system.kmp_kmp_datapath.clk_domain.clock         2000                       # Clock period in ticks
system.kmp_kmp_datapath.pwrStateResidencyTicks::UNDEFINED   1782708000                       # Cumulative time (in ticks) in various power states
system.kmp_kmp_datapath.cache_queue_reads            0                       # Number of reads to the kmp_kmp_datapath.cache_queue
system.kmp_kmp_datapath.cache_queue_writes            0                       # Number of writes to the kmp_kmp_datapath.cache_queue
system.kmp_kmp_datapath.total_dcache_loads        32917                       # Total number of dcache loads
system.kmp_kmp_datapath.total_dcache_stores            0                       # Total number of dcache stores.
system.kmp_kmp_datapath.dcache_latency::samples        32917                       # Histogram of dcache total access latency
system.kmp_kmp_datapath.dcache_latency::mean  2151.957955                       # Histogram of dcache total access latency
system.kmp_kmp_datapath.dcache_latency::gmean  2003.012816                       # Histogram of dcache total access latency
system.kmp_kmp_datapath.dcache_latency::stdev  9603.976071                       # Histogram of dcache total access latency
system.kmp_kmp_datapath.dcache_latency::0-32767        32908     99.97%     99.97% # Histogram of dcache total access latency
system.kmp_kmp_datapath.dcache_latency::32768-65535            0      0.00%     99.97% # Histogram of dcache total access latency
system.kmp_kmp_datapath.dcache_latency::65536-98303            1      0.00%     99.98% # Histogram of dcache total access latency
system.kmp_kmp_datapath.dcache_latency::98304-131071            0      0.00%     99.98% # Histogram of dcache total access latency
system.kmp_kmp_datapath.dcache_latency::131072-163839            0      0.00%     99.98% # Histogram of dcache total access latency
system.kmp_kmp_datapath.dcache_latency::163840-196607            0      0.00%     99.98% # Histogram of dcache total access latency
system.kmp_kmp_datapath.dcache_latency::196608-229375            0      0.00%     99.98% # Histogram of dcache total access latency
system.kmp_kmp_datapath.dcache_latency::229376-262143            0      0.00%     99.98% # Histogram of dcache total access latency
system.kmp_kmp_datapath.dcache_latency::262144-294911            0      0.00%     99.98% # Histogram of dcache total access latency
system.kmp_kmp_datapath.dcache_latency::294912-327679            0      0.00%     99.98% # Histogram of dcache total access latency
system.kmp_kmp_datapath.dcache_latency::327680-360447            0      0.00%     99.98% # Histogram of dcache total access latency
system.kmp_kmp_datapath.dcache_latency::360448-393215            0      0.00%     99.98% # Histogram of dcache total access latency
system.kmp_kmp_datapath.dcache_latency::393216-425983            0      0.00%     99.98% # Histogram of dcache total access latency
system.kmp_kmp_datapath.dcache_latency::425984-458751            0      0.00%     99.98% # Histogram of dcache total access latency
system.kmp_kmp_datapath.dcache_latency::458752-491519            0      0.00%     99.98% # Histogram of dcache total access latency
system.kmp_kmp_datapath.dcache_latency::491520-524287            0      0.00%     99.98% # Histogram of dcache total access latency
system.kmp_kmp_datapath.dcache_latency::524288-557055            0      0.00%     99.98% # Histogram of dcache total access latency
system.kmp_kmp_datapath.dcache_latency::557056-589823            0      0.00%     99.98% # Histogram of dcache total access latency
system.kmp_kmp_datapath.dcache_latency::589824-622591            8      0.02%    100.00% # Histogram of dcache total access latency
system.kmp_kmp_datapath.dcache_latency::622592-655359            0      0.00%    100.00% # Histogram of dcache total access latency
system.kmp_kmp_datapath.dcache_latency::655360-688127            0      0.00%    100.00% # Histogram of dcache total access latency
system.kmp_kmp_datapath.dcache_latency::688128-720895            0      0.00%    100.00% # Histogram of dcache total access latency
system.kmp_kmp_datapath.dcache_latency::720896-753663            0      0.00%    100.00% # Histogram of dcache total access latency
system.kmp_kmp_datapath.dcache_latency::753664-786431            0      0.00%    100.00% # Histogram of dcache total access latency
system.kmp_kmp_datapath.dcache_latency::786432-819199            0      0.00%    100.00% # Histogram of dcache total access latency
system.kmp_kmp_datapath.dcache_latency::819200-851967            0      0.00%    100.00% # Histogram of dcache total access latency
system.kmp_kmp_datapath.dcache_latency::851968-884735            0      0.00%    100.00% # Histogram of dcache total access latency
system.kmp_kmp_datapath.dcache_latency::884736-917503            0      0.00%    100.00% # Histogram of dcache total access latency
system.kmp_kmp_datapath.dcache_latency::917504-950271            0      0.00%    100.00% # Histogram of dcache total access latency
system.kmp_kmp_datapath.dcache_latency::950272-983039            0      0.00%    100.00% # Histogram of dcache total access latency
system.kmp_kmp_datapath.dcache_latency::total        32917                       # Histogram of dcache total access latency
system.kmp_kmp_datapath.dcache_queue_time::samples        32917                       # Histogram of time dcache request spent in queue
system.kmp_kmp_datapath.dcache_queue_time::mean 42011.483428                       # Histogram of time dcache request spent in queue
system.kmp_kmp_datapath.dcache_queue_time::gmean 42007.960460                       # Histogram of time dcache request spent in queue
system.kmp_kmp_datapath.dcache_queue_time::stdev   694.396685                       # Histogram of time dcache request spent in queue
system.kmp_kmp_datapath.dcache_queue_time::0-4095            0      0.00%      0.00% # Histogram of time dcache request spent in queue
system.kmp_kmp_datapath.dcache_queue_time::4096-8191            0      0.00%      0.00% # Histogram of time dcache request spent in queue
system.kmp_kmp_datapath.dcache_queue_time::8192-12287            0      0.00%      0.00% # Histogram of time dcache request spent in queue
system.kmp_kmp_datapath.dcache_queue_time::12288-16383            0      0.00%      0.00% # Histogram of time dcache request spent in queue
system.kmp_kmp_datapath.dcache_queue_time::16384-20479            0      0.00%      0.00% # Histogram of time dcache request spent in queue
system.kmp_kmp_datapath.dcache_queue_time::20480-24575            0      0.00%      0.00% # Histogram of time dcache request spent in queue
system.kmp_kmp_datapath.dcache_queue_time::24576-28671            0      0.00%      0.00% # Histogram of time dcache request spent in queue
system.kmp_kmp_datapath.dcache_queue_time::28672-32767            0      0.00%      0.00% # Histogram of time dcache request spent in queue
system.kmp_kmp_datapath.dcache_queue_time::32768-36863            0      0.00%      0.00% # Histogram of time dcache request spent in queue
system.kmp_kmp_datapath.dcache_queue_time::36864-40959            0      0.00%      0.00% # Histogram of time dcache request spent in queue
system.kmp_kmp_datapath.dcache_queue_time::40960-45055        32908     99.97%     99.97% # Histogram of time dcache request spent in queue
system.kmp_kmp_datapath.dcache_queue_time::45056-49151            0      0.00%     99.97% # Histogram of time dcache request spent in queue
system.kmp_kmp_datapath.dcache_queue_time::49152-53247            0      0.00%     99.97% # Histogram of time dcache request spent in queue
system.kmp_kmp_datapath.dcache_queue_time::53248-57343            0      0.00%     99.97% # Histogram of time dcache request spent in queue
system.kmp_kmp_datapath.dcache_queue_time::57344-61439            0      0.00%     99.97% # Histogram of time dcache request spent in queue
system.kmp_kmp_datapath.dcache_queue_time::61440-65535            0      0.00%     99.97% # Histogram of time dcache request spent in queue
system.kmp_kmp_datapath.dcache_queue_time::65536-69631            0      0.00%     99.97% # Histogram of time dcache request spent in queue
system.kmp_kmp_datapath.dcache_queue_time::69632-73727            0      0.00%     99.97% # Histogram of time dcache request spent in queue
system.kmp_kmp_datapath.dcache_queue_time::73728-77823            0      0.00%     99.97% # Histogram of time dcache request spent in queue
system.kmp_kmp_datapath.dcache_queue_time::77824-81919            0      0.00%     99.97% # Histogram of time dcache request spent in queue
system.kmp_kmp_datapath.dcache_queue_time::81920-86015            9      0.03%    100.00% # Histogram of time dcache request spent in queue
system.kmp_kmp_datapath.dcache_queue_time::86016-90111            0      0.00%    100.00% # Histogram of time dcache request spent in queue
system.kmp_kmp_datapath.dcache_queue_time::90112-94207            0      0.00%    100.00% # Histogram of time dcache request spent in queue
system.kmp_kmp_datapath.dcache_queue_time::94208-98303            0      0.00%    100.00% # Histogram of time dcache request spent in queue
system.kmp_kmp_datapath.dcache_queue_time::98304-102399            0      0.00%    100.00% # Histogram of time dcache request spent in queue
system.kmp_kmp_datapath.dcache_queue_time::102400-106495            0      0.00%    100.00% # Histogram of time dcache request spent in queue
system.kmp_kmp_datapath.dcache_queue_time::106496-110591            0      0.00%    100.00% # Histogram of time dcache request spent in queue
system.kmp_kmp_datapath.dcache_queue_time::110592-114687            0      0.00%    100.00% # Histogram of time dcache request spent in queue
system.kmp_kmp_datapath.dcache_queue_time::114688-118783            0      0.00%    100.00% # Histogram of time dcache request spent in queue
system.kmp_kmp_datapath.dcache_queue_time::118784-122879            0      0.00%    100.00% # Histogram of time dcache request spent in queue
system.kmp_kmp_datapath.dcache_queue_time::total        32917                       # Histogram of time dcache request spent in queue
system.kmp_kmp_datapath.total_acp_loads             0                       # Total number of ACP loads
system.kmp_kmp_datapath.total_acp_stores            0                       # Total number of ACP stores.
system.kmp_kmp_datapath.acp_latency::samples            0                       # Histogram of ACP transaction total latency
system.kmp_kmp_datapath.acp_latency::mean          nan                       # Histogram of ACP transaction total latency
system.kmp_kmp_datapath.acp_latency::gmean          nan                       # Histogram of ACP transaction total latency
system.kmp_kmp_datapath.acp_latency::stdev          nan                       # Histogram of ACP transaction total latency
system.kmp_kmp_datapath.acp_latency::0              0                       # Histogram of ACP transaction total latency
system.kmp_kmp_datapath.acp_latency::1              0                       # Histogram of ACP transaction total latency
system.kmp_kmp_datapath.acp_latency::2              0                       # Histogram of ACP transaction total latency
system.kmp_kmp_datapath.acp_latency::3              0                       # Histogram of ACP transaction total latency
system.kmp_kmp_datapath.acp_latency::4              0                       # Histogram of ACP transaction total latency
system.kmp_kmp_datapath.acp_latency::5              0                       # Histogram of ACP transaction total latency
system.kmp_kmp_datapath.acp_latency::6              0                       # Histogram of ACP transaction total latency
system.kmp_kmp_datapath.acp_latency::7              0                       # Histogram of ACP transaction total latency
system.kmp_kmp_datapath.acp_latency::8              0                       # Histogram of ACP transaction total latency
system.kmp_kmp_datapath.acp_latency::9              0                       # Histogram of ACP transaction total latency
system.kmp_kmp_datapath.acp_latency::10             0                       # Histogram of ACP transaction total latency
system.kmp_kmp_datapath.acp_latency::11             0                       # Histogram of ACP transaction total latency
system.kmp_kmp_datapath.acp_latency::12             0                       # Histogram of ACP transaction total latency
system.kmp_kmp_datapath.acp_latency::13             0                       # Histogram of ACP transaction total latency
system.kmp_kmp_datapath.acp_latency::14             0                       # Histogram of ACP transaction total latency
system.kmp_kmp_datapath.acp_latency::15             0                       # Histogram of ACP transaction total latency
system.kmp_kmp_datapath.acp_latency::16             0                       # Histogram of ACP transaction total latency
system.kmp_kmp_datapath.acp_latency::17             0                       # Histogram of ACP transaction total latency
system.kmp_kmp_datapath.acp_latency::18             0                       # Histogram of ACP transaction total latency
system.kmp_kmp_datapath.acp_latency::19             0                       # Histogram of ACP transaction total latency
system.kmp_kmp_datapath.acp_latency::20             0                       # Histogram of ACP transaction total latency
system.kmp_kmp_datapath.acp_latency::21             0                       # Histogram of ACP transaction total latency
system.kmp_kmp_datapath.acp_latency::22             0                       # Histogram of ACP transaction total latency
system.kmp_kmp_datapath.acp_latency::23             0                       # Histogram of ACP transaction total latency
system.kmp_kmp_datapath.acp_latency::24             0                       # Histogram of ACP transaction total latency
system.kmp_kmp_datapath.acp_latency::25             0                       # Histogram of ACP transaction total latency
system.kmp_kmp_datapath.acp_latency::26             0                       # Histogram of ACP transaction total latency
system.kmp_kmp_datapath.acp_latency::27             0                       # Histogram of ACP transaction total latency
system.kmp_kmp_datapath.acp_latency::28             0                       # Histogram of ACP transaction total latency
system.kmp_kmp_datapath.acp_latency::29             0                       # Histogram of ACP transaction total latency
system.kmp_kmp_datapath.acp_latency::total            0                       # Histogram of ACP transaction total latency
system.kmp_kmp_datapath.acp_queue_time::samples            0                       # Histogram of time ACP request spent in queue
system.kmp_kmp_datapath.acp_queue_time::mean          nan                       # Histogram of time ACP request spent in queue
system.kmp_kmp_datapath.acp_queue_time::gmean          nan                       # Histogram of time ACP request spent in queue
system.kmp_kmp_datapath.acp_queue_time::stdev          nan                       # Histogram of time ACP request spent in queue
system.kmp_kmp_datapath.acp_queue_time::0            0                       # Histogram of time ACP request spent in queue
system.kmp_kmp_datapath.acp_queue_time::1            0                       # Histogram of time ACP request spent in queue
system.kmp_kmp_datapath.acp_queue_time::2            0                       # Histogram of time ACP request spent in queue
system.kmp_kmp_datapath.acp_queue_time::3            0                       # Histogram of time ACP request spent in queue
system.kmp_kmp_datapath.acp_queue_time::4            0                       # Histogram of time ACP request spent in queue
system.kmp_kmp_datapath.acp_queue_time::5            0                       # Histogram of time ACP request spent in queue
system.kmp_kmp_datapath.acp_queue_time::6            0                       # Histogram of time ACP request spent in queue
system.kmp_kmp_datapath.acp_queue_time::7            0                       # Histogram of time ACP request spent in queue
system.kmp_kmp_datapath.acp_queue_time::8            0                       # Histogram of time ACP request spent in queue
system.kmp_kmp_datapath.acp_queue_time::9            0                       # Histogram of time ACP request spent in queue
system.kmp_kmp_datapath.acp_queue_time::10            0                       # Histogram of time ACP request spent in queue
system.kmp_kmp_datapath.acp_queue_time::11            0                       # Histogram of time ACP request spent in queue
system.kmp_kmp_datapath.acp_queue_time::12            0                       # Histogram of time ACP request spent in queue
system.kmp_kmp_datapath.acp_queue_time::13            0                       # Histogram of time ACP request spent in queue
system.kmp_kmp_datapath.acp_queue_time::14            0                       # Histogram of time ACP request spent in queue
system.kmp_kmp_datapath.acp_queue_time::15            0                       # Histogram of time ACP request spent in queue
system.kmp_kmp_datapath.acp_queue_time::16            0                       # Histogram of time ACP request spent in queue
system.kmp_kmp_datapath.acp_queue_time::17            0                       # Histogram of time ACP request spent in queue
system.kmp_kmp_datapath.acp_queue_time::18            0                       # Histogram of time ACP request spent in queue
system.kmp_kmp_datapath.acp_queue_time::19            0                       # Histogram of time ACP request spent in queue
system.kmp_kmp_datapath.acp_queue_time::20            0                       # Histogram of time ACP request spent in queue
system.kmp_kmp_datapath.acp_queue_time::21            0                       # Histogram of time ACP request spent in queue
system.kmp_kmp_datapath.acp_queue_time::22            0                       # Histogram of time ACP request spent in queue
system.kmp_kmp_datapath.acp_queue_time::23            0                       # Histogram of time ACP request spent in queue
system.kmp_kmp_datapath.acp_queue_time::24            0                       # Histogram of time ACP request spent in queue
system.kmp_kmp_datapath.acp_queue_time::25            0                       # Histogram of time ACP request spent in queue
system.kmp_kmp_datapath.acp_queue_time::26            0                       # Histogram of time ACP request spent in queue
system.kmp_kmp_datapath.acp_queue_time::27            0                       # Histogram of time ACP request spent in queue
system.kmp_kmp_datapath.acp_queue_time::28            0                       # Histogram of time ACP request spent in queue
system.kmp_kmp_datapath.acp_queue_time::29            0                       # Histogram of time ACP request spent in queue
system.kmp_kmp_datapath.acp_queue_time::total            0                       # Histogram of time ACP request spent in queue
system.kmp_kmp_datapath.dma_setup_cycles           15                       # Total number of cycles spent on setting up DMA transfers.
system.kmp_kmp_datapath.sim_cycles             891339                       # Total accelerator cycles
system.kmp_kmp_datapath.tlb.hits                32917                       # TLB hits
system.kmp_kmp_datapath.tlb.misses                  9                       # TLB misses
system.kmp_kmp_datapath.tlb.reads               32926                       # TLB reads
system.kmp_kmp_datapath.tlb.updates                 9                       # TLB updates
system.kmp_kmp_datapath.tlb.hitRate          0.999727                       # TLB hit rate
system.kmp_kmp_datapath.cache.prefetcher.pwrStateResidencyTicks::UNDEFINED   1782708000                       # Cumulative time (in ticks) in various power states
system.kmp_kmp_datapath.cache.prefetcher.num_hwpf_issued       250056                       # number of hwpf issued
system.kmp_kmp_datapath.cache.prefetcher.pfIdentified       250056                       # number of prefetch candidates identified
system.kmp_kmp_datapath.cache.prefetcher.pfBufferHit            0                       # number of redundant prefetches already in prefetch queue
system.kmp_kmp_datapath.cache.prefetcher.pfInCache            0                       # number of redundant prefetches already in cache/mshr dropped
system.kmp_kmp_datapath.cache.prefetcher.pfRemovedFull            0                       # number of prefetches dropped due to prefetch queue size
system.kmp_kmp_datapath.cache.prefetcher.pfSpanPage         9216                       # number of prefetches not generated due to page crossing
system.kmp_kmp_datapath.cache.tags.pwrStateResidencyTicks::UNDEFINED   1782708000                       # Cumulative time (in ticks) in various power states
system.kmp_kmp_datapath.cache.tags.tagsinuse   386.502428                       # Cycle average of tags in use
system.kmp_kmp_datapath.cache.tags.total_refs        33929                       # Total number of references to valid blocks.
system.kmp_kmp_datapath.cache.tags.sampled_refs         1021                       # Sample count of references to valid blocks.
system.kmp_kmp_datapath.cache.tags.avg_refs    33.231146                       # Average number of references to valid blocks.
system.kmp_kmp_datapath.cache.tags.warmup_cycle       220440                       # Cycle when the warmup percentage was hit.
system.kmp_kmp_datapath.cache.tags.occ_blocks::.kmp_kmp_datapath.system.kmp_kmp_datapath.cache     3.579218                       # Average occupied blocks per requestor
system.kmp_kmp_datapath.cache.tags.occ_blocks::.kmp_kmp_datapath.cache.prefetcher   382.923210                       # Average occupied blocks per requestor
system.kmp_kmp_datapath.cache.tags.occ_percent::.kmp_kmp_datapath.system.kmp_kmp_datapath.cache     0.006991                       # Average percentage of cache occupancy
system.kmp_kmp_datapath.cache.tags.occ_percent::.kmp_kmp_datapath.cache.prefetcher     0.747897                       # Average percentage of cache occupancy
system.kmp_kmp_datapath.cache.tags.occ_percent::total     0.754888                       # Average percentage of cache occupancy
system.kmp_kmp_datapath.cache.tags.occ_task_id_blocks::1022          508                       # Occupied blocks per task id
system.kmp_kmp_datapath.cache.tags.occ_task_id_blocks::1024            4                       # Occupied blocks per task id
system.kmp_kmp_datapath.cache.tags.age_task_id_blocks_1022::0            5                       # Occupied blocks per task id
system.kmp_kmp_datapath.cache.tags.age_task_id_blocks_1022::1           52                       # Occupied blocks per task id
system.kmp_kmp_datapath.cache.tags.age_task_id_blocks_1022::2          451                       # Occupied blocks per task id
system.kmp_kmp_datapath.cache.tags.age_task_id_blocks_1024::2            4                       # Occupied blocks per task id
system.kmp_kmp_datapath.cache.tags.occ_task_id_percent::1022     0.992188                       # Percentage of cache occupancy per task id
system.kmp_kmp_datapath.cache.tags.occ_task_id_percent::1024     0.007812                       # Percentage of cache occupancy per task id
system.kmp_kmp_datapath.cache.tags.tag_accesses       132689                       # Number of tag accesses
system.kmp_kmp_datapath.cache.tags.data_accesses       132689                       # Number of data accesses
system.kmp_kmp_datapath.cache.pwrStateResidencyTicks::UNDEFINED   1782708000                       # Cumulative time (in ticks) in various power states
system.kmp_kmp_datapath.cache.ReadReq_hits::.kmp_kmp_datapath.system.kmp_kmp_datapath.cache        32908                       # number of ReadReq hits
system.kmp_kmp_datapath.cache.ReadReq_hits::total        32908                       # number of ReadReq hits
system.kmp_kmp_datapath.cache.demand_hits::.kmp_kmp_datapath.system.kmp_kmp_datapath.cache        32908                       # number of demand (read+write) hits
system.kmp_kmp_datapath.cache.demand_hits::total        32908                       # number of demand (read+write) hits
system.kmp_kmp_datapath.cache.overall_hits::.kmp_kmp_datapath.system.kmp_kmp_datapath.cache        32908                       # number of overall hits
system.kmp_kmp_datapath.cache.overall_hits::total        32908                       # number of overall hits
system.kmp_kmp_datapath.cache.ReadReq_misses::.kmp_kmp_datapath.system.kmp_kmp_datapath.cache            9                       # number of ReadReq misses
system.kmp_kmp_datapath.cache.ReadReq_misses::total            9                       # number of ReadReq misses
system.kmp_kmp_datapath.cache.demand_misses::.kmp_kmp_datapath.system.kmp_kmp_datapath.cache            9                       # number of demand (read+write) misses
system.kmp_kmp_datapath.cache.demand_misses::total            9                       # number of demand (read+write) misses
system.kmp_kmp_datapath.cache.overall_misses::.kmp_kmp_datapath.system.kmp_kmp_datapath.cache            9                       # number of overall misses
system.kmp_kmp_datapath.cache.overall_misses::total            9                       # number of overall misses
system.kmp_kmp_datapath.cache.ReadReq_miss_latency::.kmp_kmp_datapath.system.kmp_kmp_datapath.cache      5020000                       # number of ReadReq miss cycles
system.kmp_kmp_datapath.cache.ReadReq_miss_latency::total      5020000                       # number of ReadReq miss cycles
system.kmp_kmp_datapath.cache.demand_miss_latency::.kmp_kmp_datapath.system.kmp_kmp_datapath.cache      5020000                       # number of demand (read+write) miss cycles
system.kmp_kmp_datapath.cache.demand_miss_latency::total      5020000                       # number of demand (read+write) miss cycles
system.kmp_kmp_datapath.cache.overall_miss_latency::.kmp_kmp_datapath.system.kmp_kmp_datapath.cache      5020000                       # number of overall miss cycles
system.kmp_kmp_datapath.cache.overall_miss_latency::total      5020000                       # number of overall miss cycles
system.kmp_kmp_datapath.cache.ReadReq_accesses::.kmp_kmp_datapath.system.kmp_kmp_datapath.cache        32917                       # number of ReadReq accesses(hits+misses)
system.kmp_kmp_datapath.cache.ReadReq_accesses::total        32917                       # number of ReadReq accesses(hits+misses)
system.kmp_kmp_datapath.cache.demand_accesses::.kmp_kmp_datapath.system.kmp_kmp_datapath.cache        32917                       # number of demand (read+write) accesses
system.kmp_kmp_datapath.cache.demand_accesses::total        32917                       # number of demand (read+write) accesses
system.kmp_kmp_datapath.cache.overall_accesses::.kmp_kmp_datapath.system.kmp_kmp_datapath.cache        32917                       # number of overall (read+write) accesses
system.kmp_kmp_datapath.cache.overall_accesses::total        32917                       # number of overall (read+write) accesses
system.kmp_kmp_datapath.cache.ReadReq_miss_rate::.kmp_kmp_datapath.system.kmp_kmp_datapath.cache     0.000273                       # miss rate for ReadReq accesses
system.kmp_kmp_datapath.cache.ReadReq_miss_rate::total     0.000273                       # miss rate for ReadReq accesses
system.kmp_kmp_datapath.cache.demand_miss_rate::.kmp_kmp_datapath.system.kmp_kmp_datapath.cache     0.000273                       # miss rate for demand accesses
system.kmp_kmp_datapath.cache.demand_miss_rate::total     0.000273                       # miss rate for demand accesses
system.kmp_kmp_datapath.cache.overall_miss_rate::.kmp_kmp_datapath.system.kmp_kmp_datapath.cache     0.000273                       # miss rate for overall accesses
system.kmp_kmp_datapath.cache.overall_miss_rate::total     0.000273                       # miss rate for overall accesses
system.kmp_kmp_datapath.cache.ReadReq_avg_miss_latency::.kmp_kmp_datapath.system.kmp_kmp_datapath.cache 557777.777778                       # average ReadReq miss latency
system.kmp_kmp_datapath.cache.ReadReq_avg_miss_latency::total 557777.777778                       # average ReadReq miss latency
system.kmp_kmp_datapath.cache.demand_avg_miss_latency::.kmp_kmp_datapath.system.kmp_kmp_datapath.cache 557777.777778                       # average overall miss latency
system.kmp_kmp_datapath.cache.demand_avg_miss_latency::total 557777.777778                       # average overall miss latency
system.kmp_kmp_datapath.cache.overall_avg_miss_latency::.kmp_kmp_datapath.system.kmp_kmp_datapath.cache 557777.777778                       # average overall miss latency
system.kmp_kmp_datapath.cache.overall_avg_miss_latency::total 557777.777778                       # average overall miss latency
system.kmp_kmp_datapath.cache.blocked_cycles::no_mshrs            0                       # number of cycles access was blocked
system.kmp_kmp_datapath.cache.blocked_cycles::no_targets            0                       # number of cycles access was blocked
system.kmp_kmp_datapath.cache.blocked::no_mshrs            0                       # number of cycles access was blocked
system.kmp_kmp_datapath.cache.blocked::no_targets            0                       # number of cycles access was blocked
system.kmp_kmp_datapath.cache.avg_blocked_cycles::no_mshrs          nan                       # average number of cycles each access was blocked
system.kmp_kmp_datapath.cache.avg_blocked_cycles::no_targets          nan                       # average number of cycles each access was blocked
system.kmp_kmp_datapath.cache.ReadReq_mshr_misses::.kmp_kmp_datapath.system.kmp_kmp_datapath.cache            9                       # number of ReadReq MSHR misses
system.kmp_kmp_datapath.cache.ReadReq_mshr_misses::total            9                       # number of ReadReq MSHR misses
system.kmp_kmp_datapath.cache.HardPFReq_mshr_misses::.kmp_kmp_datapath.cache.prefetcher         1012                       # number of HardPFReq MSHR misses
system.kmp_kmp_datapath.cache.HardPFReq_mshr_misses::total         1012                       # number of HardPFReq MSHR misses
system.kmp_kmp_datapath.cache.demand_mshr_misses::.kmp_kmp_datapath.system.kmp_kmp_datapath.cache            9                       # number of demand (read+write) MSHR misses
system.kmp_kmp_datapath.cache.demand_mshr_misses::total            9                       # number of demand (read+write) MSHR misses
system.kmp_kmp_datapath.cache.overall_mshr_misses::.kmp_kmp_datapath.system.kmp_kmp_datapath.cache            9                       # number of overall MSHR misses
system.kmp_kmp_datapath.cache.overall_mshr_misses::.kmp_kmp_datapath.cache.prefetcher         1012                       # number of overall MSHR misses
system.kmp_kmp_datapath.cache.overall_mshr_misses::total         1021                       # number of overall MSHR misses
system.kmp_kmp_datapath.cache.ReadReq_mshr_miss_latency::.kmp_kmp_datapath.system.kmp_kmp_datapath.cache      4990808                       # number of ReadReq MSHR miss cycles
system.kmp_kmp_datapath.cache.ReadReq_mshr_miss_latency::total      4990808                       # number of ReadReq MSHR miss cycles
system.kmp_kmp_datapath.cache.HardPFReq_mshr_miss_latency::.kmp_kmp_datapath.cache.prefetcher    110404489                       # number of HardPFReq MSHR miss cycles
system.kmp_kmp_datapath.cache.HardPFReq_mshr_miss_latency::total    110404489                       # number of HardPFReq MSHR miss cycles
system.kmp_kmp_datapath.cache.demand_mshr_miss_latency::.kmp_kmp_datapath.system.kmp_kmp_datapath.cache      4990808                       # number of demand (read+write) MSHR miss cycles
system.kmp_kmp_datapath.cache.demand_mshr_miss_latency::total      4990808                       # number of demand (read+write) MSHR miss cycles
system.kmp_kmp_datapath.cache.overall_mshr_miss_latency::.kmp_kmp_datapath.system.kmp_kmp_datapath.cache      4990808                       # number of overall MSHR miss cycles
system.kmp_kmp_datapath.cache.overall_mshr_miss_latency::.kmp_kmp_datapath.cache.prefetcher    110404489                       # number of overall MSHR miss cycles
system.kmp_kmp_datapath.cache.overall_mshr_miss_latency::total    115395297                       # number of overall MSHR miss cycles
system.kmp_kmp_datapath.cache.ReadReq_mshr_miss_rate::.kmp_kmp_datapath.system.kmp_kmp_datapath.cache     0.000273                       # mshr miss rate for ReadReq accesses
system.kmp_kmp_datapath.cache.ReadReq_mshr_miss_rate::total     0.000273                       # mshr miss rate for ReadReq accesses
system.kmp_kmp_datapath.cache.HardPFReq_mshr_miss_rate::.kmp_kmp_datapath.cache.prefetcher          inf                       # mshr miss rate for HardPFReq accesses
system.kmp_kmp_datapath.cache.HardPFReq_mshr_miss_rate::total          inf                       # mshr miss rate for HardPFReq accesses
system.kmp_kmp_datapath.cache.demand_mshr_miss_rate::.kmp_kmp_datapath.system.kmp_kmp_datapath.cache     0.000273                       # mshr miss rate for demand accesses
system.kmp_kmp_datapath.cache.demand_mshr_miss_rate::total     0.000273                       # mshr miss rate for demand accesses
system.kmp_kmp_datapath.cache.overall_mshr_miss_rate::.kmp_kmp_datapath.system.kmp_kmp_datapath.cache     0.000273                       # mshr miss rate for overall accesses
system.kmp_kmp_datapath.cache.overall_mshr_miss_rate::.kmp_kmp_datapath.cache.prefetcher          inf                       # mshr miss rate for overall accesses
system.kmp_kmp_datapath.cache.overall_mshr_miss_rate::total     0.031017                       # mshr miss rate for overall accesses
system.kmp_kmp_datapath.cache.ReadReq_avg_mshr_miss_latency::.kmp_kmp_datapath.system.kmp_kmp_datapath.cache 554534.222222                       # average ReadReq mshr miss latency
system.kmp_kmp_datapath.cache.ReadReq_avg_mshr_miss_latency::total 554534.222222                       # average ReadReq mshr miss latency
system.kmp_kmp_datapath.cache.HardPFReq_avg_mshr_miss_latency::.kmp_kmp_datapath.cache.prefetcher 109095.344862                       # average HardPFReq mshr miss latency
system.kmp_kmp_datapath.cache.HardPFReq_avg_mshr_miss_latency::total 109095.344862                       # average HardPFReq mshr miss latency
system.kmp_kmp_datapath.cache.demand_avg_mshr_miss_latency::.kmp_kmp_datapath.system.kmp_kmp_datapath.cache 554534.222222                       # average overall mshr miss latency
system.kmp_kmp_datapath.cache.demand_avg_mshr_miss_latency::total 554534.222222                       # average overall mshr miss latency
system.kmp_kmp_datapath.cache.overall_avg_mshr_miss_latency::.kmp_kmp_datapath.system.kmp_kmp_datapath.cache 554534.222222                       # average overall mshr miss latency
system.kmp_kmp_datapath.cache.overall_avg_mshr_miss_latency::.kmp_kmp_datapath.cache.prefetcher 109095.344862                       # average overall mshr miss latency
system.kmp_kmp_datapath.cache.overall_avg_mshr_miss_latency::total 113021.838394                       # average overall mshr miss latency
system.kmp_kmp_datapath.cache.replacements          509                       # number of replacements
system.membus.snoop_filter.tot_requests          1530                       # Total number of requests made to the snoop filter.
system.membus.snoop_filter.hit_single_requests          509                       # Number of requests hitting in the snoop filter with a single holder of the requested data.
system.membus.snoop_filter.hit_multi_requests            0                       # Number of requests hitting in the snoop filter with multiple (>1) holders of the requested data.
system.membus.snoop_filter.tot_snoops               0                       # Total number of snoops made to the snoop filter.
system.membus.snoop_filter.hit_single_snoops            0                       # Number of snoops hitting in the snoop filter with a single holder of the requested data.
system.membus.snoop_filter.hit_multi_snoops            0                       # Number of snoops hitting in the snoop filter with multiple (>1) holders of the requested data.
system.membus.pwrStateResidencyTicks::UNDEFINED   1782708000                       # Cumulative time (in ticks) in various power states
system.membus.trans_dist::ReadResp               1021                       # Transaction distribution
system.membus.trans_dist::CleanEvict              509                       # Transaction distribution
system.membus.trans_dist::ReadSharedReq          1021                       # Transaction distribution
system.membus.pkt_count_system.kmp_kmp_datapath.cache.mem_side::system.mem_ctrls.port         2551                       # Packet count per connected master and slave (bytes)
system.membus.pkt_count::total                   2551                       # Packet count per connected master and slave (bytes)
system.membus.pkt_size_system.kmp_kmp_datapath.cache.mem_side::system.mem_ctrls.port        32672                       # Cumulative packet size per connected master and slave (bytes)
system.membus.pkt_size::total                   32672                       # Cumulative packet size per connected master and slave (bytes)
system.membus.snoops                                0                       # Total snoops (count)
system.membus.snoopTraffic                          0                       # Total snoop traffic (bytes)
system.membus.snoop_fanout::samples              1021                       # Request fanout histogram
system.membus.snoop_fanout::mean                    0                       # Request fanout histogram
system.membus.snoop_fanout::stdev                   0                       # Request fanout histogram
system.membus.snoop_fanout::underflows              0      0.00%      0.00% # Request fanout histogram
system.membus.snoop_fanout::0                    1021    100.00%    100.00% # Request fanout histogram
system.membus.snoop_fanout::1                       0      0.00%    100.00% # Request fanout histogram
system.membus.snoop_fanout::2                       0      0.00%    100.00% # Request fanout histogram
system.membus.snoop_fanout::overflows               0      0.00%    100.00% # Request fanout histogram
system.membus.snoop_fanout::min_value               0                       # Request fanout histogram
system.membus.snoop_fanout::max_value               0                       # Request fanout histogram
system.membus.snoop_fanout::total                1021                       # Request fanout histogram
system.membus.reqLayer0.occupancy             4498156                       # Layer occupancy (ticks)
system.membus.reqLayer0.utilization               0.3                       # Layer utilization (%)
system.membus.respLayer1.occupancy            7457998                       # Layer occupancy (ticks)
system.membus.respLayer1.utilization              0.4                       # Layer utilization (%)

---------- End Simulation Statistics   ----------
