gem5 Simulator System.  http://gem5.org
gem5 is copyrighted software; use the --copyright option for details.

gem5 compiled Jun  2 2019 14:47:48
gem5 started Jun 11 2019 01:15:26
gem5 executing on 5e24d8f23dc5, pid 18397
command line: /workspace/gem5-aladdin/build/X86/gem5.opt --stats-db-file=stats.db --outdir=/workspace/gem5-aladdin/sweeps/machsuite/kmp_kmp/0/outputs /workspace/gem5-aladdin/configs/aladdin/aladdin_se.py --num-cpus=0 --mem-size=4GB --enable-stats-dump --enable_prefetchers --prefetcher-type=stride --mem-type=DDR3_1600_8x8 --sys-clock=499MHz --cpu-type=DerivO3CPU --caches --cacheline_size=32 --accel_cfg_file=/workspace/gem5-aladdin/sweeps/machsuite/kmp_kmp/0/gem5.cfg -c kmp-kmp-gem5-accel -o ''

Global frequency set at 1000000000000 ticks per second
-------------------------------
      Setting ScratchPad       
-------------------------------
-------------------------------
      Generating DDDG          
-------------------------------
-------------------------------
Num of Nodes: 655627
Num of Edges: 1376544
Num of Reg Edges: 720457
Num of MEM Edges: 462
Num of Control Edges: 655626
-------------------------------
-------------------------------
    Initializing BaseDatapath      
-------------------------------
 Top level: kmp
=============================================
      Optimizing...            /workspace/gem5-aladdin/sweeps/machsuite/kmp_kmp/0/outputs/kmp_kmp
=============================================
-------------------------------
  Remove PHI and Convert Nodes 
-------------------------------
  Removing 653665 edges.
  Adding 555515 new edges.
  Removing 98246 isolated nodes.
-------------------------------
  Remove Induction Dependence  
-------------------------------
-------------------------------
       Init Base Address       
-------------------------------
-------------------------------
     Init DMA Base Address     
-------------------------------
-------------------------------
        Mem to Reg Conv        
-------------------------------
-------------------------------
      ScratchPad Partition     
-------------------------------
-------------------------------
         Loop Flatten          
-------------------------------
  Removing 0 isolated nodes.
  Removing 0 isolated nodes.
-------------------------------
         Loop Unrolling        
-------------------------------
  Adding 854097 new edges.
  Removing 0 isolated nodes.
  Removing 0 isolated nodes.
-------------------------------
          Load Buffer          
-------------------------------
  Adding 68 new edges.
  Removing 340 edges.
  Removing 0 isolated nodes.
-------------------------------
          Store Buffer         
-------------------------------
  Adding 0 new edges.
  Removing 0 isolated nodes.
  Removing 0 isolated nodes.
-------------------------------
    Remove Repeated Stores     
-------------------------------
-------------------------------
      Memory Ambiguation       
-------------------------------
  Adding 0 new edges.
-------------------------------
     Tree Height Reduction     
-------------------------------
  Removing 0 edges.
  Adding 0 new edges.
  Removing 0 isolated nodes.
-------------------------------
  Fuse register loads/stores   
-------------------------------
  Removing 33866 edges.
  Adding 33866 new edges.
  Removing 0 isolated nodes.
-------------------------------
   Fuse consecutive branches   
-------------------------------
  Removing 0 edges.
  Adding 0 new edges.
  Removing 0 isolated nodes.
-------------------------------
      Per Loop Pipelining      
-------------------------------
-------------------------------
         Loop Pipelining        
-------------------------------
=============================================
      Scheduling...            /workspace/gem5-aladdin/sweeps/machsuite/kmp_kmp/0/outputs/kmp_kmp
=============================================
  Total connected nodes: 459616
  Total edges: 1772261
=============================================
**** REAL SIMULATION ****
===============================
        Aladdin Results        
===============================
Running : /workspace/gem5-aladdin/sweeps/machsuite/kmp_kmp/0/outputs/kmp_kmp
Top level function: kmp
Cycle : 891354 cycles
Avg Power: 1.90948 mW
Idle FU Cycles: 858916 cycles
Avg FU Power: 0.0742814 mW
Avg FU Dynamic Power: 0.0387267 mW
Avg FU leakage Power: 0.0355547 mW
Avg MEM Power: 1.8352 mW
Avg MEM Dynamic Power: 0.542433 mW
Avg MEM Leakage Power: 1.29277 mW
Total Area: 305265 uM^2
FU Area: 2823.24 uM^2
MEM Area: 302442 uM^2
Num of Adders (32-bit): 4
Num of Registers (32-bit): 5
===============================
        Aladdin Results        
===============================
-------------------------------
      Generating DDDG          
-------------------------------
-------------------------------
Reached end of trace.
-------------------------------
Exiting @ tick 1782708000 because Aladdin called exit()
