
---------- Begin Simulation Statistics ----------
sim_seconds                                  0.000308                       # Number of seconds simulated
sim_ticks                                   308110000                       # Number of ticks simulated
final_tick                                  308110000                       # Number of ticks from beginning of simulation (restored from checkpoints and never reset)
sim_freq                                 1000000000000                       # Frequency of simulated ticks
host_tick_rate                               42711869                       # Simulator tick rate (ticks/s)
host_mem_usage                                5809780                       # Number of bytes of host memory used
host_seconds                                     7.21                       # Real time elapsed on the host
system.voltage_domain.voltage                       1                       # Voltage in Volts
system.clk_domain.clock                          2004                       # Clock period in ticks
system.mem_ctrls.pwrStateResidencyTicks::UNDEFINED    308110000                       # Cumulative time (in ticks) in various power states
system.mem_ctrls.bytes_read::.md_grid_datapath.system.md_grid_datapath.cache        11040                       # Number of bytes read from this memory
system.mem_ctrls.bytes_read::.md_grid_datapath.cache.prefetcher        12000                       # Number of bytes read from this memory
system.mem_ctrls.bytes_read::total              23040                       # Number of bytes read from this memory
system.mem_ctrls.bytes_written::.writebacks         2464                       # Number of bytes written to this memory
system.mem_ctrls.bytes_written::total            2464                       # Number of bytes written to this memory
system.mem_ctrls.num_reads::.md_grid_datapath.system.md_grid_datapath.cache          345                       # Number of read requests responded to by this memory
system.mem_ctrls.num_reads::.md_grid_datapath.cache.prefetcher          375                       # Number of read requests responded to by this memory
system.mem_ctrls.num_reads::total                 720                       # Number of read requests responded to by this memory
system.mem_ctrls.num_writes::.writebacks           77                       # Number of write requests responded to by this memory
system.mem_ctrls.num_writes::total                 77                       # Number of write requests responded to by this memory
system.mem_ctrls.bw_read::.md_grid_datapath.system.md_grid_datapath.cache     35831359                       # Total read bandwidth from this memory (bytes/s)
system.mem_ctrls.bw_read::.md_grid_datapath.cache.prefetcher     38947129                       # Total read bandwidth from this memory (bytes/s)
system.mem_ctrls.bw_read::total              74778488                       # Total read bandwidth from this memory (bytes/s)
system.mem_ctrls.bw_write::.writebacks        7997144                       # Write bandwidth from this memory (bytes/s)
system.mem_ctrls.bw_write::total              7997144                       # Write bandwidth from this memory (bytes/s)
system.mem_ctrls.bw_total::.writebacks        7997144                       # Total bandwidth to/from this memory (bytes/s)
system.mem_ctrls.bw_total::.md_grid_datapath.system.md_grid_datapath.cache     35831359                       # Total bandwidth to/from this memory (bytes/s)
system.mem_ctrls.bw_total::.md_grid_datapath.cache.prefetcher     38947129                       # Total bandwidth to/from this memory (bytes/s)
system.mem_ctrls.bw_total::total             82775632                       # Total bandwidth to/from this memory (bytes/s)
system.mem_ctrls.avgPriority_.writebacks::samples        65.00                       # Average QoS priority value for accepted requests
system.mem_ctrls.avgPriority_.md_grid_datapath.system.md_grid_datapath.cache::samples       345.00                       # Average QoS priority value for accepted requests
system.mem_ctrls.avgPriority_.md_grid_datapath.cache.prefetcher::samples       375.00                       # Average QoS priority value for accepted requests
system.mem_ctrls.priorityMinLatency      0.000000018750                       # per QoS priority minimum request to response latency (s)
system.mem_ctrls.priorityMaxLatency      0.000319221250                       # per QoS priority maximum request to response latency (s)
system.mem_ctrls.numReadWriteTurnArounds            2                       # Number of turnarounds from READ to WRITE
system.mem_ctrls.numWriteReadTurnArounds            2                       # Number of turnarounds from WRITE to READ
system.mem_ctrls.numStayReadState                1444                       # Number of times bus staying in READ state
system.mem_ctrls.numStayWriteState                 35                       # Number of times bus staying in WRITE state
system.mem_ctrls.readReqs                         720                       # Number of read requests accepted
system.mem_ctrls.writeReqs                         77                       # Number of write requests accepted
system.mem_ctrls.readBursts                       720                       # Number of DRAM read bursts, including those serviced by the write queue
system.mem_ctrls.writeBursts                       77                       # Number of DRAM write bursts, including those merged in the write queue
system.mem_ctrls.bytesReadDRAM                  46080                       # Total number of bytes read from DRAM
system.mem_ctrls.bytesReadWrQ                       0                       # Total number of bytes read from write queue
system.mem_ctrls.bytesWritten                    2368                       # Total number of bytes written to DRAM
system.mem_ctrls.bytesReadSys                   23040                       # Total read bytes from the system interface side
system.mem_ctrls.bytesWrittenSys                 2464                       # Total written bytes from the system interface side
system.mem_ctrls.servicedByWrQ                      0                       # Number of DRAM read bursts serviced by the write queue
system.mem_ctrls.mergedWrBursts                    12                       # Number of DRAM write bursts merged with an existing one
system.mem_ctrls.neitherReadNorWriteReqs            0                       # Number of requests that are neither read nor write
system.mem_ctrls.perBankRdBursts::0               158                       # Per bank write bursts
system.mem_ctrls.perBankRdBursts::1               128                       # Per bank write bursts
system.mem_ctrls.perBankRdBursts::2                16                       # Per bank write bursts
system.mem_ctrls.perBankRdBursts::3                 0                       # Per bank write bursts
system.mem_ctrls.perBankRdBursts::4                 0                       # Per bank write bursts
system.mem_ctrls.perBankRdBursts::5                 0                       # Per bank write bursts
system.mem_ctrls.perBankRdBursts::6                 0                       # Per bank write bursts
system.mem_ctrls.perBankRdBursts::7                 0                       # Per bank write bursts
system.mem_ctrls.perBankRdBursts::8                 0                       # Per bank write bursts
system.mem_ctrls.perBankRdBursts::9                 0                       # Per bank write bursts
system.mem_ctrls.perBankRdBursts::10                0                       # Per bank write bursts
system.mem_ctrls.perBankRdBursts::11                0                       # Per bank write bursts
system.mem_ctrls.perBankRdBursts::12                0                       # Per bank write bursts
system.mem_ctrls.perBankRdBursts::13                0                       # Per bank write bursts
system.mem_ctrls.perBankRdBursts::14              174                       # Per bank write bursts
system.mem_ctrls.perBankRdBursts::15              244                       # Per bank write bursts
system.mem_ctrls.perBankWrBursts::0                 0                       # Per bank write bursts
system.mem_ctrls.perBankWrBursts::1                 0                       # Per bank write bursts
system.mem_ctrls.perBankWrBursts::2                 0                       # Per bank write bursts
system.mem_ctrls.perBankWrBursts::3                 0                       # Per bank write bursts
system.mem_ctrls.perBankWrBursts::4                 0                       # Per bank write bursts
system.mem_ctrls.perBankWrBursts::5                 0                       # Per bank write bursts
system.mem_ctrls.perBankWrBursts::6                 0                       # Per bank write bursts
system.mem_ctrls.perBankWrBursts::7                 0                       # Per bank write bursts
system.mem_ctrls.perBankWrBursts::8                 0                       # Per bank write bursts
system.mem_ctrls.perBankWrBursts::9                 0                       # Per bank write bursts
system.mem_ctrls.perBankWrBursts::10                0                       # Per bank write bursts
system.mem_ctrls.perBankWrBursts::11                0                       # Per bank write bursts
system.mem_ctrls.perBankWrBursts::12                0                       # Per bank write bursts
system.mem_ctrls.perBankWrBursts::13                0                       # Per bank write bursts
system.mem_ctrls.perBankWrBursts::14               29                       # Per bank write bursts
system.mem_ctrls.perBankWrBursts::15                8                       # Per bank write bursts
system.mem_ctrls.numRdRetry                         0                       # Number of times read queue was full causing retry
system.mem_ctrls.numWrRetry                         0                       # Number of times write queue was full causing retry
system.mem_ctrls.totGap                     306406002                       # Total gap between requests
system.mem_ctrls.readPktSize::0                     0                       # Read request sizes (log2)
system.mem_ctrls.readPktSize::1                     0                       # Read request sizes (log2)
system.mem_ctrls.readPktSize::2                     0                       # Read request sizes (log2)
system.mem_ctrls.readPktSize::3                     0                       # Read request sizes (log2)
system.mem_ctrls.readPktSize::4                     0                       # Read request sizes (log2)
system.mem_ctrls.readPktSize::5                   720                       # Read request sizes (log2)
system.mem_ctrls.readPktSize::6                     0                       # Read request sizes (log2)
system.mem_ctrls.writePktSize::0                    0                       # Write request sizes (log2)
system.mem_ctrls.writePktSize::1                    0                       # Write request sizes (log2)
system.mem_ctrls.writePktSize::2                    0                       # Write request sizes (log2)
system.mem_ctrls.writePktSize::3                    0                       # Write request sizes (log2)
system.mem_ctrls.writePktSize::4                    0                       # Write request sizes (log2)
system.mem_ctrls.writePktSize::5                   77                       # Write request sizes (log2)
system.mem_ctrls.writePktSize::6                    0                       # Write request sizes (log2)
system.mem_ctrls.rdQLenPdf::0                     169                       # What read queue length does an incoming req see
system.mem_ctrls.rdQLenPdf::1                     143                       # What read queue length does an incoming req see
system.mem_ctrls.rdQLenPdf::2                     115                       # What read queue length does an incoming req see
system.mem_ctrls.rdQLenPdf::3                      81                       # What read queue length does an incoming req see
system.mem_ctrls.rdQLenPdf::4                      65                       # What read queue length does an incoming req see
system.mem_ctrls.rdQLenPdf::5                      41                       # What read queue length does an incoming req see
system.mem_ctrls.rdQLenPdf::6                      30                       # What read queue length does an incoming req see
system.mem_ctrls.rdQLenPdf::7                      19                       # What read queue length does an incoming req see
system.mem_ctrls.rdQLenPdf::8                      15                       # What read queue length does an incoming req see
system.mem_ctrls.rdQLenPdf::9                      12                       # What read queue length does an incoming req see
system.mem_ctrls.rdQLenPdf::10                     10                       # What read queue length does an incoming req see
system.mem_ctrls.rdQLenPdf::11                     13                       # What read queue length does an incoming req see
system.mem_ctrls.rdQLenPdf::12                      6                       # What read queue length does an incoming req see
system.mem_ctrls.rdQLenPdf::13                      1                       # What read queue length does an incoming req see
system.mem_ctrls.rdQLenPdf::14                      0                       # What read queue length does an incoming req see
system.mem_ctrls.rdQLenPdf::15                      0                       # What read queue length does an incoming req see
system.mem_ctrls.rdQLenPdf::16                      0                       # What read queue length does an incoming req see
system.mem_ctrls.rdQLenPdf::17                      0                       # What read queue length does an incoming req see
system.mem_ctrls.rdQLenPdf::18                      0                       # What read queue length does an incoming req see
system.mem_ctrls.rdQLenPdf::19                      0                       # What read queue length does an incoming req see
system.mem_ctrls.rdQLenPdf::20                      0                       # What read queue length does an incoming req see
system.mem_ctrls.rdQLenPdf::21                      0                       # What read queue length does an incoming req see
system.mem_ctrls.rdQLenPdf::22                      0                       # What read queue length does an incoming req see
system.mem_ctrls.rdQLenPdf::23                      0                       # What read queue length does an incoming req see
system.mem_ctrls.rdQLenPdf::24                      0                       # What read queue length does an incoming req see
system.mem_ctrls.rdQLenPdf::25                      0                       # What read queue length does an incoming req see
system.mem_ctrls.rdQLenPdf::26                      0                       # What read queue length does an incoming req see
system.mem_ctrls.rdQLenPdf::27                      0                       # What read queue length does an incoming req see
system.mem_ctrls.rdQLenPdf::28                      0                       # What read queue length does an incoming req see
system.mem_ctrls.rdQLenPdf::29                      0                       # What read queue length does an incoming req see
system.mem_ctrls.rdQLenPdf::30                      0                       # What read queue length does an incoming req see
system.mem_ctrls.rdQLenPdf::31                      0                       # What read queue length does an incoming req see
system.mem_ctrls.wrQLenPdf::0                       1                       # What write queue length does an incoming req see
system.mem_ctrls.wrQLenPdf::1                       1                       # What write queue length does an incoming req see
system.mem_ctrls.wrQLenPdf::2                       1                       # What write queue length does an incoming req see
system.mem_ctrls.wrQLenPdf::3                       1                       # What write queue length does an incoming req see
system.mem_ctrls.wrQLenPdf::4                       1                       # What write queue length does an incoming req see
system.mem_ctrls.wrQLenPdf::5                       1                       # What write queue length does an incoming req see
system.mem_ctrls.wrQLenPdf::6                       1                       # What write queue length does an incoming req see
system.mem_ctrls.wrQLenPdf::7                       1                       # What write queue length does an incoming req see
system.mem_ctrls.wrQLenPdf::8                       1                       # What write queue length does an incoming req see
system.mem_ctrls.wrQLenPdf::9                       1                       # What write queue length does an incoming req see
system.mem_ctrls.wrQLenPdf::10                      1                       # What write queue length does an incoming req see
system.mem_ctrls.wrQLenPdf::11                      1                       # What write queue length does an incoming req see
system.mem_ctrls.wrQLenPdf::12                      1                       # What write queue length does an incoming req see
system.mem_ctrls.wrQLenPdf::13                      1                       # What write queue length does an incoming req see
system.mem_ctrls.wrQLenPdf::14                      1                       # What write queue length does an incoming req see
system.mem_ctrls.wrQLenPdf::15                      3                       # What write queue length does an incoming req see
system.mem_ctrls.wrQLenPdf::16                      3                       # What write queue length does an incoming req see
system.mem_ctrls.wrQLenPdf::17                      3                       # What write queue length does an incoming req see
system.mem_ctrls.wrQLenPdf::18                      3                       # What write queue length does an incoming req see
system.mem_ctrls.wrQLenPdf::19                      3                       # What write queue length does an incoming req see
system.mem_ctrls.wrQLenPdf::20                      3                       # What write queue length does an incoming req see
system.mem_ctrls.wrQLenPdf::21                      3                       # What write queue length does an incoming req see
system.mem_ctrls.wrQLenPdf::22                      3                       # What write queue length does an incoming req see
system.mem_ctrls.wrQLenPdf::23                      3                       # What write queue length does an incoming req see
system.mem_ctrls.wrQLenPdf::24                      3                       # What write queue length does an incoming req see
system.mem_ctrls.wrQLenPdf::25                      3                       # What write queue length does an incoming req see
system.mem_ctrls.wrQLenPdf::26                      3                       # What write queue length does an incoming req see
system.mem_ctrls.wrQLenPdf::27                      3                       # What write queue length does an incoming req see
system.mem_ctrls.wrQLenPdf::28                      2                       # What write queue length does an incoming req see
system.mem_ctrls.wrQLenPdf::29                      2                       # What write queue length does an incoming req see
system.mem_ctrls.wrQLenPdf::30                      3                       # What write queue length does an incoming req see
system.mem_ctrls.wrQLenPdf::31                      2                       # What write queue length does an incoming req see
system.mem_ctrls.wrQLenPdf::32                      2                       # What write queue length does an incoming req see
system.mem_ctrls.wrQLenPdf::33                      0                       # What write queue length does an incoming req see
system.mem_ctrls.wrQLenPdf::34                      0                       # What write queue length does an incoming req see
system.mem_ctrls.wrQLenPdf::35                      0                       # What write queue length does an incoming req see
system.mem_ctrls.wrQLenPdf::36                      0                       # What write queue length does an incoming req see
system.mem_ctrls.wrQLenPdf::37                      0                       # What write queue length does an incoming req see
system.mem_ctrls.wrQLenPdf::38                      0                       # What write queue length does an incoming req see
system.mem_ctrls.wrQLenPdf::39                      0                       # What write queue length does an incoming req see
system.mem_ctrls.wrQLenPdf::40                      0                       # What write queue length does an incoming req see
system.mem_ctrls.wrQLenPdf::41                      0                       # What write queue length does an incoming req see
system.mem_ctrls.wrQLenPdf::42                      0                       # What write queue length does an incoming req see
system.mem_ctrls.wrQLenPdf::43                      0                       # What write queue length does an incoming req see
system.mem_ctrls.wrQLenPdf::44                      0                       # What write queue length does an incoming req see
system.mem_ctrls.wrQLenPdf::45                      0                       # What write queue length does an incoming req see
system.mem_ctrls.wrQLenPdf::46                      0                       # What write queue length does an incoming req see
system.mem_ctrls.wrQLenPdf::47                      0                       # What write queue length does an incoming req see
system.mem_ctrls.wrQLenPdf::48                      0                       # What write queue length does an incoming req see
system.mem_ctrls.wrQLenPdf::49                      0                       # What write queue length does an incoming req see
system.mem_ctrls.wrQLenPdf::50                      0                       # What write queue length does an incoming req see
system.mem_ctrls.wrQLenPdf::51                      0                       # What write queue length does an incoming req see
system.mem_ctrls.wrQLenPdf::52                      0                       # What write queue length does an incoming req see
system.mem_ctrls.wrQLenPdf::53                      0                       # What write queue length does an incoming req see
system.mem_ctrls.wrQLenPdf::54                      0                       # What write queue length does an incoming req see
system.mem_ctrls.wrQLenPdf::55                      0                       # What write queue length does an incoming req see
system.mem_ctrls.wrQLenPdf::56                      0                       # What write queue length does an incoming req see
system.mem_ctrls.wrQLenPdf::57                      0                       # What write queue length does an incoming req see
system.mem_ctrls.wrQLenPdf::58                      0                       # What write queue length does an incoming req see
system.mem_ctrls.wrQLenPdf::59                      0                       # What write queue length does an incoming req see
system.mem_ctrls.wrQLenPdf::60                      0                       # What write queue length does an incoming req see
system.mem_ctrls.wrQLenPdf::61                      0                       # What write queue length does an incoming req see
system.mem_ctrls.wrQLenPdf::62                      0                       # What write queue length does an incoming req see
system.mem_ctrls.wrQLenPdf::63                      0                       # What write queue length does an incoming req see
system.mem_ctrls.bytesPerActivate::samples           89                       # Bytes accessed per row activation
system.mem_ctrls.bytesPerActivate::mean    535.730337                       # Bytes accessed per row activation
system.mem_ctrls.bytesPerActivate::gmean   401.058826                       # Bytes accessed per row activation
system.mem_ctrls.bytesPerActivate::stdev   349.928719                       # Bytes accessed per row activation
system.mem_ctrls.bytesPerActivate::0-127            6      6.74%      6.74% # Bytes accessed per row activation
system.mem_ctrls.bytesPerActivate::128-255           16     17.98%     24.72% # Bytes accessed per row activation
system.mem_ctrls.bytesPerActivate::256-383           16     17.98%     42.70% # Bytes accessed per row activation
system.mem_ctrls.bytesPerActivate::384-511           10     11.24%     53.93% # Bytes accessed per row activation
system.mem_ctrls.bytesPerActivate::512-639            5      5.62%     59.55% # Bytes accessed per row activation
system.mem_ctrls.bytesPerActivate::640-767            7      7.87%     67.42% # Bytes accessed per row activation
system.mem_ctrls.bytesPerActivate::768-895            4      4.49%     71.91% # Bytes accessed per row activation
system.mem_ctrls.bytesPerActivate::896-1023            4      4.49%     76.40% # Bytes accessed per row activation
system.mem_ctrls.bytesPerActivate::1024-1151           21     23.60%    100.00% # Bytes accessed per row activation
system.mem_ctrls.bytesPerActivate::total           89                       # Bytes accessed per row activation
system.mem_ctrls.rdPerTurnAround::samples            2                       # Reads before turning the bus around for writes
system.mem_ctrls.rdPerTurnAround::mean     334.500000                       # Reads before turning the bus around for writes
system.mem_ctrls.rdPerTurnAround::gmean    198.141364                       # Reads before turning the bus around for writes
system.mem_ctrls.rdPerTurnAround::stdev    381.130555                       # Reads before turning the bus around for writes
system.mem_ctrls.rdPerTurnAround::64-95             1     50.00%     50.00% # Reads before turning the bus around for writes
system.mem_ctrls.rdPerTurnAround::576-607            1     50.00%    100.00% # Reads before turning the bus around for writes
system.mem_ctrls.rdPerTurnAround::total             2                       # Reads before turning the bus around for writes
system.mem_ctrls.wrPerTurnAround::samples            2                       # Writes before turning the bus around for reads
system.mem_ctrls.wrPerTurnAround::mean      18.500000                       # Writes before turning the bus around for reads
system.mem_ctrls.wrPerTurnAround::gmean     18.493242                       # Writes before turning the bus around for reads
system.mem_ctrls.wrPerTurnAround::stdev      0.707107                       # Writes before turning the bus around for reads
system.mem_ctrls.wrPerTurnAround::18                1     50.00%     50.00% # Writes before turning the bus around for reads
system.mem_ctrls.wrPerTurnAround::19                1     50.00%    100.00% # Writes before turning the bus around for reads
system.mem_ctrls.wrPerTurnAround::total             2                       # Writes before turning the bus around for reads
system.mem_ctrls.masterReadBytes::.md_grid_datapath.system.md_grid_datapath.cache        11040                       # Per-master bytes read from memory
system.mem_ctrls.masterReadBytes::.md_grid_datapath.cache.prefetcher        12000                       # Per-master bytes read from memory
system.mem_ctrls.masterWriteBytes::.writebacks         1184                       # Per-master bytes write to memory
system.mem_ctrls.masterReadRate::.md_grid_datapath.system.md_grid_datapath.cache 35831358.930252179503                       # Per-master bytes read from memory rate (Bytes/sec)
system.mem_ctrls.masterReadRate::.md_grid_datapath.cache.prefetcher 38947129.272013239563                       # Per-master bytes read from memory rate (Bytes/sec)
system.mem_ctrls.masterWriteRate::.writebacks 3842783.421505306382                       # Per-master bytes write to memory rate (Bytes/sec)
system.mem_ctrls.masterReadAccesses::.md_grid_datapath.system.md_grid_datapath.cache          345                       # Per-master read serviced memory accesses
system.mem_ctrls.masterReadAccesses::.md_grid_datapath.cache.prefetcher          375                       # Per-master read serviced memory accesses
system.mem_ctrls.masterWriteAccesses::.writebacks           77                       # Per-master write serviced memory accesses
system.mem_ctrls.masterReadTotalLat::.md_grid_datapath.system.md_grid_datapath.cache     30027928                       # Per-master read total memory access latency
system.mem_ctrls.masterReadTotalLat::.md_grid_datapath.cache.prefetcher     16357515                       # Per-master read total memory access latency
system.mem_ctrls.masterWriteTotalLat::.writebacks   2965335496                       # Per-master write total memory access latency
system.mem_ctrls.masterReadAvgLat::.md_grid_datapath.system.md_grid_datapath.cache     87037.47                       # Per-master read average memory access latency
system.mem_ctrls.masterReadAvgLat::.md_grid_datapath.cache.prefetcher     43620.04                       # Per-master read average memory access latency
system.mem_ctrls.masterWriteAvgLat::.writebacks  38510850.60                       # Per-master write average memory access latency
system.mem_ctrls.totQLat                     32885443                       # Total ticks spent queuing
system.mem_ctrls.totMemAccLat                46385443                       # Total ticks spent from burst creation until serviced by the DRAM
system.mem_ctrls.totBusLat                    3600000                       # Total ticks spent in databus transfers
system.mem_ctrls.avgQLat                     45674.23                       # Average queueing delay per DRAM burst
system.mem_ctrls.avgBusLat                    5000.00                       # Average bus latency per DRAM burst
system.mem_ctrls.avgMemAccLat                64424.23                       # Average memory access latency per DRAM burst
system.mem_ctrls.avgRdBW                       149.56                       # Average DRAM read bandwidth in MiByte/s
system.mem_ctrls.avgWrBW                         7.69                       # Average achieved write bandwidth in MiByte/s
system.mem_ctrls.avgRdBWSys                     74.78                       # Average system read bandwidth in MiByte/s
system.mem_ctrls.avgWrBWSys                      8.00                       # Average system write bandwidth in MiByte/s
system.mem_ctrls.peakBW                      12800.00                       # Theoretical peak bandwidth in MiByte/s
system.mem_ctrls.busUtil                         1.23                       # Data bus utilization in percentage
system.mem_ctrls.busUtilRead                     1.17                       # Data bus utilization in percentage for reads
system.mem_ctrls.busUtilWrite                    0.06                       # Data bus utilization in percentage for writes
system.mem_ctrls.avgRdQLen                       3.81                       # Average read queue length when enqueuing
system.mem_ctrls.avgWrQLen                      12.38                       # Average write queue length when enqueuing
system.mem_ctrls.readRowHits                      633                       # Number of row buffer hits during reads
system.mem_ctrls.writeRowHits                      34                       # Number of row buffer hits during writes
system.mem_ctrls.readRowHitRate                 87.92                       # Row buffer hit rate for reads
system.mem_ctrls.writeRowHitRate                52.31                       # Row buffer hit rate for writes
system.mem_ctrls.avgGap                     384449.19                       # Average gap between requests
system.mem_ctrls.pageHitRate                    84.97                       # Row buffer hit rate, read and write combined
system.mem_ctrls_0.actEnergy                   264180                       # Energy for activate commands per rank (pJ)
system.mem_ctrls_0.preEnergy                   136620                       # Energy for precharge commands per rank (pJ)
system.mem_ctrls_0.readEnergy                 2156280                       # Energy for read commands per rank (pJ)
system.mem_ctrls_0.writeEnergy                      0                       # Energy for write commands per rank (pJ)
system.mem_ctrls_0.refreshEnergy         18439200.000000                       # Energy for refresh commands per rank (pJ)
system.mem_ctrls_0.actBackEnergy              5018850                       # Energy for active background per rank (pJ)
system.mem_ctrls_0.preBackEnergy               970080                       # Energy for precharge background per rank (pJ)
system.mem_ctrls_0.actPowerDownEnergy        62839650                       # Energy for active power-down per rank (pJ)
system.mem_ctrls_0.prePowerDownEnergy        34673280                       # Energy for precharge power-down per rank (pJ)
system.mem_ctrls_0.selfRefreshEnergy         18715500                       # Energy for self refresh per rank (pJ)
system.mem_ctrls_0.totalEnergy              143213640                       # Total energy per rank (pJ)
system.mem_ctrls_0.averagePower            464.813346                       # Core power per rank (mW)
system.mem_ctrls_0.totalIdleTime            293027002                       # Total Idle time Per DRAM Rank
system.mem_ctrls_0.memoryStateTime::IDLE      1688280                       # Time in different power states
system.mem_ctrls_0.memoryStateTime::REF       7800000                       # Time in different power states
system.mem_ctrls_0.memoryStateTime::SREF     66475250                       # Time in different power states
system.mem_ctrls_0.memoryStateTime::PRE_PDN     90291139                       # Time in different power states
system.mem_ctrls_0.memoryStateTime::ACT       4053470                       # Time in different power states
system.mem_ctrls_0.memoryStateTime::ACT_PDN    137801861                       # Time in different power states
system.mem_ctrls_1.actEnergy                   378420                       # Energy for activate commands per rank (pJ)
system.mem_ctrls_1.preEnergy                   201135                       # Energy for precharge commands per rank (pJ)
system.mem_ctrls_1.readEnergy                 2984520                       # Energy for read commands per rank (pJ)
system.mem_ctrls_1.writeEnergy                 193140                       # Energy for write commands per rank (pJ)
system.mem_ctrls_1.refreshEnergy         22127040.000000                       # Energy for refresh commands per rank (pJ)
system.mem_ctrls_1.actBackEnergy              9101190                       # Energy for active background per rank (pJ)
system.mem_ctrls_1.preBackEnergy               789120                       # Energy for precharge background per rank (pJ)
system.mem_ctrls_1.actPowerDownEnergy        79631280                       # Energy for active power-down per rank (pJ)
system.mem_ctrls_1.prePowerDownEnergy        35329440                       # Energy for precharge power-down per rank (pJ)
system.mem_ctrls_1.selfRefreshEnergy          6327720                       # Energy for self refresh per rank (pJ)
system.mem_ctrls_1.totalEnergy              157063005                       # Total energy per rank (pJ)
system.mem_ctrls_1.averagePower            509.762763                       # Core power per rank (mW)
system.mem_ctrls_1.totalIdleTime            275430071                       # Total Idle time Per DRAM Rank
system.mem_ctrls_1.memoryStateTime::IDLE       906000                       # Time in different power states
system.mem_ctrls_1.memoryStateTime::REF       9360000                       # Time in different power states
system.mem_ctrls_1.memoryStateTime::SREF     19460750                       # Time in different power states
system.mem_ctrls_1.memoryStateTime::PRE_PDN     91988834                       # Time in different power states
system.mem_ctrls_1.memoryStateTime::ACT      11775179                       # Time in different power states
system.mem_ctrls_1.memoryStateTime::ACT_PDN    174619237                       # Time in different power states
system.pwrStateResidencyTicks::UNDEFINED    308110000                       # Cumulative time (in ticks) in various power states
system.cpu_voltage_domain.voltage                   1                       # Voltage in Volts
system.cpu_clk_domain.clock                       500                       # Clock period in ticks
system.md_grid_datapath.clk_domain.clock         2000                       # Clock period in ticks
system.md_grid_datapath.pwrStateResidencyTicks::UNDEFINED    308110000                       # Cumulative time (in ticks) in various power states
system.md_grid_datapath.cache_queue_reads            0                       # Number of reads to the md_grid_datapath.cache_queue
system.md_grid_datapath.cache_queue_writes            0                       # Number of writes to the md_grid_datapath.cache_queue
system.md_grid_datapath.total_dcache_loads        12503                       # Total number of dcache loads
system.md_grid_datapath.total_dcache_stores        12978                       # Total number of dcache stores.
system.md_grid_datapath.dcache_latency::samples        25481                       # Histogram of dcache total access latency
system.md_grid_datapath.dcache_latency::mean  3851.430635                       # Histogram of dcache total access latency
system.md_grid_datapath.dcache_latency::gmean  2112.641115                       # Histogram of dcache total access latency
system.md_grid_datapath.dcache_latency::stdev 23832.154795                       # Histogram of dcache total access latency
system.md_grid_datapath.dcache_latency::0-32767        25134     98.64%     98.64% # Histogram of dcache total access latency
system.md_grid_datapath.dcache_latency::32768-65535            2      0.01%     98.65% # Histogram of dcache total access latency
system.md_grid_datapath.dcache_latency::65536-98303          266      1.04%     99.69% # Histogram of dcache total access latency
system.md_grid_datapath.dcache_latency::98304-131071           41      0.16%     99.85% # Histogram of dcache total access latency
system.md_grid_datapath.dcache_latency::131072-163839            0      0.00%     99.85% # Histogram of dcache total access latency
system.md_grid_datapath.dcache_latency::163840-196607            0      0.00%     99.85% # Histogram of dcache total access latency
system.md_grid_datapath.dcache_latency::196608-229375            0      0.00%     99.85% # Histogram of dcache total access latency
system.md_grid_datapath.dcache_latency::229376-262143            2      0.01%     99.86% # Histogram of dcache total access latency
system.md_grid_datapath.dcache_latency::262144-294911            6      0.02%     99.88% # Histogram of dcache total access latency
system.md_grid_datapath.dcache_latency::294912-327679            0      0.00%     99.88% # Histogram of dcache total access latency
system.md_grid_datapath.dcache_latency::327680-360447            0      0.00%     99.88% # Histogram of dcache total access latency
system.md_grid_datapath.dcache_latency::360448-393215            0      0.00%     99.88% # Histogram of dcache total access latency
system.md_grid_datapath.dcache_latency::393216-425983            0      0.00%     99.88% # Histogram of dcache total access latency
system.md_grid_datapath.dcache_latency::425984-458751            0      0.00%     99.88% # Histogram of dcache total access latency
system.md_grid_datapath.dcache_latency::458752-491519            0      0.00%     99.88% # Histogram of dcache total access latency
system.md_grid_datapath.dcache_latency::491520-524287            0      0.00%     99.88% # Histogram of dcache total access latency
system.md_grid_datapath.dcache_latency::524288-557055            0      0.00%     99.88% # Histogram of dcache total access latency
system.md_grid_datapath.dcache_latency::557056-589823            0      0.00%     99.88% # Histogram of dcache total access latency
system.md_grid_datapath.dcache_latency::589824-622591           11      0.04%     99.93% # Histogram of dcache total access latency
system.md_grid_datapath.dcache_latency::622592-655359           19      0.07%    100.00% # Histogram of dcache total access latency
system.md_grid_datapath.dcache_latency::655360-688127            0      0.00%    100.00% # Histogram of dcache total access latency
system.md_grid_datapath.dcache_latency::688128-720895            0      0.00%    100.00% # Histogram of dcache total access latency
system.md_grid_datapath.dcache_latency::720896-753663            0      0.00%    100.00% # Histogram of dcache total access latency
system.md_grid_datapath.dcache_latency::753664-786431            0      0.00%    100.00% # Histogram of dcache total access latency
system.md_grid_datapath.dcache_latency::786432-819199            0      0.00%    100.00% # Histogram of dcache total access latency
system.md_grid_datapath.dcache_latency::819200-851967            0      0.00%    100.00% # Histogram of dcache total access latency
system.md_grid_datapath.dcache_latency::851968-884735            0      0.00%    100.00% # Histogram of dcache total access latency
system.md_grid_datapath.dcache_latency::884736-917503            0      0.00%    100.00% # Histogram of dcache total access latency
system.md_grid_datapath.dcache_latency::917504-950271            0      0.00%    100.00% # Histogram of dcache total access latency
system.md_grid_datapath.dcache_latency::950272-983039            0      0.00%    100.00% # Histogram of dcache total access latency
system.md_grid_datapath.dcache_latency::total        25481                       # Histogram of dcache total access latency
system.md_grid_datapath.dcache_queue_time::samples        25481                       # Histogram of time dcache request spent in queue
system.md_grid_datapath.dcache_queue_time::mean 44004.630901                       # Histogram of time dcache request spent in queue
system.md_grid_datapath.dcache_queue_time::gmean 43933.384113                       # Histogram of time dcache request spent in queue
system.md_grid_datapath.dcache_queue_time::stdev  2690.551623                       # Histogram of time dcache request spent in queue
system.md_grid_datapath.dcache_queue_time::0-4095            0      0.00%      0.00% # Histogram of time dcache request spent in queue
system.md_grid_datapath.dcache_queue_time::4096-8191            0      0.00%      0.00% # Histogram of time dcache request spent in queue
system.md_grid_datapath.dcache_queue_time::8192-12287            0      0.00%      0.00% # Histogram of time dcache request spent in queue
system.md_grid_datapath.dcache_queue_time::12288-16383            0      0.00%      0.00% # Histogram of time dcache request spent in queue
system.md_grid_datapath.dcache_queue_time::16384-20479            0      0.00%      0.00% # Histogram of time dcache request spent in queue
system.md_grid_datapath.dcache_queue_time::20480-24575            0      0.00%      0.00% # Histogram of time dcache request spent in queue
system.md_grid_datapath.dcache_queue_time::24576-28671            0      0.00%      0.00% # Histogram of time dcache request spent in queue
system.md_grid_datapath.dcache_queue_time::28672-32767            0      0.00%      0.00% # Histogram of time dcache request spent in queue
system.md_grid_datapath.dcache_queue_time::32768-36863            0      0.00%      0.00% # Histogram of time dcache request spent in queue
system.md_grid_datapath.dcache_queue_time::36864-40959            0      0.00%      0.00% # Histogram of time dcache request spent in queue
system.md_grid_datapath.dcache_queue_time::40960-45055        17994     70.62%     70.62% # Histogram of time dcache request spent in queue
system.md_grid_datapath.dcache_queue_time::45056-49151         6698     26.29%     96.90% # Histogram of time dcache request spent in queue
system.md_grid_datapath.dcache_queue_time::49152-53247          758      2.97%     99.88% # Histogram of time dcache request spent in queue
system.md_grid_datapath.dcache_queue_time::53248-57343            0      0.00%     99.88% # Histogram of time dcache request spent in queue
system.md_grid_datapath.dcache_queue_time::57344-61439            0      0.00%     99.88% # Histogram of time dcache request spent in queue
system.md_grid_datapath.dcache_queue_time::61440-65535            0      0.00%     99.88% # Histogram of time dcache request spent in queue
system.md_grid_datapath.dcache_queue_time::65536-69631            0      0.00%     99.88% # Histogram of time dcache request spent in queue
system.md_grid_datapath.dcache_queue_time::69632-73727            0      0.00%     99.88% # Histogram of time dcache request spent in queue
system.md_grid_datapath.dcache_queue_time::73728-77823            0      0.00%     99.88% # Histogram of time dcache request spent in queue
system.md_grid_datapath.dcache_queue_time::77824-81919            0      0.00%     99.88% # Histogram of time dcache request spent in queue
system.md_grid_datapath.dcache_queue_time::81920-86015           25      0.10%     99.98% # Histogram of time dcache request spent in queue
system.md_grid_datapath.dcache_queue_time::86016-90111            6      0.02%    100.00% # Histogram of time dcache request spent in queue
system.md_grid_datapath.dcache_queue_time::90112-94207            0      0.00%    100.00% # Histogram of time dcache request spent in queue
system.md_grid_datapath.dcache_queue_time::94208-98303            0      0.00%    100.00% # Histogram of time dcache request spent in queue
system.md_grid_datapath.dcache_queue_time::98304-102399            0      0.00%    100.00% # Histogram of time dcache request spent in queue
system.md_grid_datapath.dcache_queue_time::102400-106495            0      0.00%    100.00% # Histogram of time dcache request spent in queue
system.md_grid_datapath.dcache_queue_time::106496-110591            0      0.00%    100.00% # Histogram of time dcache request spent in queue
system.md_grid_datapath.dcache_queue_time::110592-114687            0      0.00%    100.00% # Histogram of time dcache request spent in queue
system.md_grid_datapath.dcache_queue_time::114688-118783            0      0.00%    100.00% # Histogram of time dcache request spent in queue
system.md_grid_datapath.dcache_queue_time::118784-122879            0      0.00%    100.00% # Histogram of time dcache request spent in queue
system.md_grid_datapath.dcache_queue_time::total        25481                       # Histogram of time dcache request spent in queue
system.md_grid_datapath.total_acp_loads             0                       # Total number of ACP loads
system.md_grid_datapath.total_acp_stores            0                       # Total number of ACP stores.
system.md_grid_datapath.acp_latency::samples            0                       # Histogram of ACP transaction total latency
system.md_grid_datapath.acp_latency::mean          nan                       # Histogram of ACP transaction total latency
system.md_grid_datapath.acp_latency::gmean          nan                       # Histogram of ACP transaction total latency
system.md_grid_datapath.acp_latency::stdev          nan                       # Histogram of ACP transaction total latency
system.md_grid_datapath.acp_latency::0              0                       # Histogram of ACP transaction total latency
system.md_grid_datapath.acp_latency::1              0                       # Histogram of ACP transaction total latency
system.md_grid_datapath.acp_latency::2              0                       # Histogram of ACP transaction total latency
system.md_grid_datapath.acp_latency::3              0                       # Histogram of ACP transaction total latency
system.md_grid_datapath.acp_latency::4              0                       # Histogram of ACP transaction total latency
system.md_grid_datapath.acp_latency::5              0                       # Histogram of ACP transaction total latency
system.md_grid_datapath.acp_latency::6              0                       # Histogram of ACP transaction total latency
system.md_grid_datapath.acp_latency::7              0                       # Histogram of ACP transaction total latency
system.md_grid_datapath.acp_latency::8              0                       # Histogram of ACP transaction total latency
system.md_grid_datapath.acp_latency::9              0                       # Histogram of ACP transaction total latency
system.md_grid_datapath.acp_latency::10             0                       # Histogram of ACP transaction total latency
system.md_grid_datapath.acp_latency::11             0                       # Histogram of ACP transaction total latency
system.md_grid_datapath.acp_latency::12             0                       # Histogram of ACP transaction total latency
system.md_grid_datapath.acp_latency::13             0                       # Histogram of ACP transaction total latency
system.md_grid_datapath.acp_latency::14             0                       # Histogram of ACP transaction total latency
system.md_grid_datapath.acp_latency::15             0                       # Histogram of ACP transaction total latency
system.md_grid_datapath.acp_latency::16             0                       # Histogram of ACP transaction total latency
system.md_grid_datapath.acp_latency::17             0                       # Histogram of ACP transaction total latency
system.md_grid_datapath.acp_latency::18             0                       # Histogram of ACP transaction total latency
system.md_grid_datapath.acp_latency::19             0                       # Histogram of ACP transaction total latency
system.md_grid_datapath.acp_latency::20             0                       # Histogram of ACP transaction total latency
system.md_grid_datapath.acp_latency::21             0                       # Histogram of ACP transaction total latency
system.md_grid_datapath.acp_latency::22             0                       # Histogram of ACP transaction total latency
system.md_grid_datapath.acp_latency::23             0                       # Histogram of ACP transaction total latency
system.md_grid_datapath.acp_latency::24             0                       # Histogram of ACP transaction total latency
system.md_grid_datapath.acp_latency::25             0                       # Histogram of ACP transaction total latency
system.md_grid_datapath.acp_latency::26             0                       # Histogram of ACP transaction total latency
system.md_grid_datapath.acp_latency::27             0                       # Histogram of ACP transaction total latency
system.md_grid_datapath.acp_latency::28             0                       # Histogram of ACP transaction total latency
system.md_grid_datapath.acp_latency::29             0                       # Histogram of ACP transaction total latency
system.md_grid_datapath.acp_latency::total            0                       # Histogram of ACP transaction total latency
system.md_grid_datapath.acp_queue_time::samples            0                       # Histogram of time ACP request spent in queue
system.md_grid_datapath.acp_queue_time::mean          nan                       # Histogram of time ACP request spent in queue
system.md_grid_datapath.acp_queue_time::gmean          nan                       # Histogram of time ACP request spent in queue
system.md_grid_datapath.acp_queue_time::stdev          nan                       # Histogram of time ACP request spent in queue
system.md_grid_datapath.acp_queue_time::0            0                       # Histogram of time ACP request spent in queue
system.md_grid_datapath.acp_queue_time::1            0                       # Histogram of time ACP request spent in queue
system.md_grid_datapath.acp_queue_time::2            0                       # Histogram of time ACP request spent in queue
system.md_grid_datapath.acp_queue_time::3            0                       # Histogram of time ACP request spent in queue
system.md_grid_datapath.acp_queue_time::4            0                       # Histogram of time ACP request spent in queue
system.md_grid_datapath.acp_queue_time::5            0                       # Histogram of time ACP request spent in queue
system.md_grid_datapath.acp_queue_time::6            0                       # Histogram of time ACP request spent in queue
system.md_grid_datapath.acp_queue_time::7            0                       # Histogram of time ACP request spent in queue
system.md_grid_datapath.acp_queue_time::8            0                       # Histogram of time ACP request spent in queue
system.md_grid_datapath.acp_queue_time::9            0                       # Histogram of time ACP request spent in queue
system.md_grid_datapath.acp_queue_time::10            0                       # Histogram of time ACP request spent in queue
system.md_grid_datapath.acp_queue_time::11            0                       # Histogram of time ACP request spent in queue
system.md_grid_datapath.acp_queue_time::12            0                       # Histogram of time ACP request spent in queue
system.md_grid_datapath.acp_queue_time::13            0                       # Histogram of time ACP request spent in queue
system.md_grid_datapath.acp_queue_time::14            0                       # Histogram of time ACP request spent in queue
system.md_grid_datapath.acp_queue_time::15            0                       # Histogram of time ACP request spent in queue
system.md_grid_datapath.acp_queue_time::16            0                       # Histogram of time ACP request spent in queue
system.md_grid_datapath.acp_queue_time::17            0                       # Histogram of time ACP request spent in queue
system.md_grid_datapath.acp_queue_time::18            0                       # Histogram of time ACP request spent in queue
system.md_grid_datapath.acp_queue_time::19            0                       # Histogram of time ACP request spent in queue
system.md_grid_datapath.acp_queue_time::20            0                       # Histogram of time ACP request spent in queue
system.md_grid_datapath.acp_queue_time::21            0                       # Histogram of time ACP request spent in queue
system.md_grid_datapath.acp_queue_time::22            0                       # Histogram of time ACP request spent in queue
system.md_grid_datapath.acp_queue_time::23            0                       # Histogram of time ACP request spent in queue
system.md_grid_datapath.acp_queue_time::24            0                       # Histogram of time ACP request spent in queue
system.md_grid_datapath.acp_queue_time::25            0                       # Histogram of time ACP request spent in queue
system.md_grid_datapath.acp_queue_time::26            0                       # Histogram of time ACP request spent in queue
system.md_grid_datapath.acp_queue_time::27            0                       # Histogram of time ACP request spent in queue
system.md_grid_datapath.acp_queue_time::28            0                       # Histogram of time ACP request spent in queue
system.md_grid_datapath.acp_queue_time::29            0                       # Histogram of time ACP request spent in queue
system.md_grid_datapath.acp_queue_time::total            0                       # Histogram of time ACP request spent in queue
system.md_grid_datapath.dma_setup_cycles           15                       # Total number of cycles spent on setting up DMA transfers.
system.md_grid_datapath.sim_cycles             154040                       # Total accelerator cycles
system.md_grid_datapath.tlb.hits                25481                       # TLB hits
system.md_grid_datapath.tlb.misses                 31                       # TLB misses
system.md_grid_datapath.tlb.reads               25512                       # TLB reads
system.md_grid_datapath.tlb.updates                 9                       # TLB updates
system.md_grid_datapath.tlb.hitRate          0.998785                       # TLB hit rate
system.md_grid_datapath.cache.prefetcher.pwrStateResidencyTicks::UNDEFINED    308110000                       # Cumulative time (in ticks) in various power states
system.md_grid_datapath.cache.prefetcher.num_hwpf_issued         8108                       # number of hwpf issued
system.md_grid_datapath.cache.prefetcher.pfIdentified        17021                       # number of prefetch candidates identified
system.md_grid_datapath.cache.prefetcher.pfBufferHit         8344                       # number of redundant prefetches already in prefetch queue
system.md_grid_datapath.cache.prefetcher.pfInCache            0                       # number of redundant prefetches already in cache/mshr dropped
system.md_grid_datapath.cache.prefetcher.pfRemovedFull           10                       # number of prefetches dropped due to prefetch queue size
system.md_grid_datapath.cache.prefetcher.pfSpanPage          459                       # number of prefetches not generated due to page crossing
system.md_grid_datapath.cache.tags.pwrStateResidencyTicks::UNDEFINED    308110000                       # Cumulative time (in ticks) in various power states
system.md_grid_datapath.cache.tags.tagsinuse   365.242757                       # Cycle average of tags in use
system.md_grid_datapath.cache.tags.total_refs        25852                       # Total number of references to valid blocks.
system.md_grid_datapath.cache.tags.sampled_refs          720                       # Sample count of references to valid blocks.
system.md_grid_datapath.cache.tags.avg_refs    35.905556                       # Average number of references to valid blocks.
system.md_grid_datapath.cache.tags.warmup_cycle       212424                       # Cycle when the warmup percentage was hit.
system.md_grid_datapath.cache.tags.occ_blocks::.md_grid_datapath.system.md_grid_datapath.cache   208.983657                       # Average occupied blocks per requestor
system.md_grid_datapath.cache.tags.occ_blocks::.md_grid_datapath.cache.prefetcher   156.259100                       # Average occupied blocks per requestor
system.md_grid_datapath.cache.tags.occ_percent::.md_grid_datapath.system.md_grid_datapath.cache     0.408171                       # Average percentage of cache occupancy
system.md_grid_datapath.cache.tags.occ_percent::.md_grid_datapath.cache.prefetcher     0.305194                       # Average percentage of cache occupancy
system.md_grid_datapath.cache.tags.occ_percent::total     0.713365                       # Average percentage of cache occupancy
system.md_grid_datapath.cache.tags.occ_task_id_blocks::1022          231                       # Occupied blocks per task id
system.md_grid_datapath.cache.tags.occ_task_id_blocks::1024          269                       # Occupied blocks per task id
system.md_grid_datapath.cache.tags.age_task_id_blocks_1022::0           38                       # Occupied blocks per task id
system.md_grid_datapath.cache.tags.age_task_id_blocks_1022::1           69                       # Occupied blocks per task id
system.md_grid_datapath.cache.tags.age_task_id_blocks_1022::2          124                       # Occupied blocks per task id
system.md_grid_datapath.cache.tags.age_task_id_blocks_1024::0            8                       # Occupied blocks per task id
system.md_grid_datapath.cache.tags.age_task_id_blocks_1024::1           46                       # Occupied blocks per task id
system.md_grid_datapath.cache.tags.age_task_id_blocks_1024::2          215                       # Occupied blocks per task id
system.md_grid_datapath.cache.tags.occ_task_id_percent::1022     0.451172                       # Percentage of cache occupancy per task id
system.md_grid_datapath.cache.tags.occ_task_id_percent::1024     0.525391                       # Percentage of cache occupancy per task id
system.md_grid_datapath.cache.tags.tag_accesses       102644                       # Number of tag accesses
system.md_grid_datapath.cache.tags.data_accesses       102644                       # Number of data accesses
system.md_grid_datapath.cache.pwrStateResidencyTicks::UNDEFINED    308110000                       # Cumulative time (in ticks) in various power states
system.md_grid_datapath.cache.ReadReq_hits::.md_grid_datapath.system.md_grid_datapath.cache        12154                       # number of ReadReq hits
system.md_grid_datapath.cache.ReadReq_hits::total        12154                       # number of ReadReq hits
system.md_grid_datapath.cache.WriteReq_hits::.md_grid_datapath.system.md_grid_datapath.cache        12978                       # number of WriteReq hits
system.md_grid_datapath.cache.WriteReq_hits::total        12978                       # number of WriteReq hits
system.md_grid_datapath.cache.demand_hits::.md_grid_datapath.system.md_grid_datapath.cache        25132                       # number of demand (read+write) hits
system.md_grid_datapath.cache.demand_hits::total        25132                       # number of demand (read+write) hits
system.md_grid_datapath.cache.overall_hits::.md_grid_datapath.system.md_grid_datapath.cache        25132                       # number of overall hits
system.md_grid_datapath.cache.overall_hits::total        25132                       # number of overall hits
system.md_grid_datapath.cache.ReadReq_misses::.md_grid_datapath.system.md_grid_datapath.cache          349                       # number of ReadReq misses
system.md_grid_datapath.cache.ReadReq_misses::total          349                       # number of ReadReq misses
system.md_grid_datapath.cache.demand_misses::.md_grid_datapath.system.md_grid_datapath.cache          349                       # number of demand (read+write) misses
system.md_grid_datapath.cache.demand_misses::total          349                       # number of demand (read+write) misses
system.md_grid_datapath.cache.overall_misses::.md_grid_datapath.system.md_grid_datapath.cache          349                       # number of overall misses
system.md_grid_datapath.cache.overall_misses::total          349                       # number of overall misses
system.md_grid_datapath.cache.ReadReq_miss_latency::.md_grid_datapath.system.md_grid_datapath.cache     47840000                       # number of ReadReq miss cycles
system.md_grid_datapath.cache.ReadReq_miss_latency::total     47840000                       # number of ReadReq miss cycles
system.md_grid_datapath.cache.demand_miss_latency::.md_grid_datapath.system.md_grid_datapath.cache     47840000                       # number of demand (read+write) miss cycles
system.md_grid_datapath.cache.demand_miss_latency::total     47840000                       # number of demand (read+write) miss cycles
system.md_grid_datapath.cache.overall_miss_latency::.md_grid_datapath.system.md_grid_datapath.cache     47840000                       # number of overall miss cycles
system.md_grid_datapath.cache.overall_miss_latency::total     47840000                       # number of overall miss cycles
system.md_grid_datapath.cache.ReadReq_accesses::.md_grid_datapath.system.md_grid_datapath.cache        12503                       # number of ReadReq accesses(hits+misses)
system.md_grid_datapath.cache.ReadReq_accesses::total        12503                       # number of ReadReq accesses(hits+misses)
system.md_grid_datapath.cache.WriteReq_accesses::.md_grid_datapath.system.md_grid_datapath.cache        12978                       # number of WriteReq accesses(hits+misses)
system.md_grid_datapath.cache.WriteReq_accesses::total        12978                       # number of WriteReq accesses(hits+misses)
system.md_grid_datapath.cache.demand_accesses::.md_grid_datapath.system.md_grid_datapath.cache        25481                       # number of demand (read+write) accesses
system.md_grid_datapath.cache.demand_accesses::total        25481                       # number of demand (read+write) accesses
system.md_grid_datapath.cache.overall_accesses::.md_grid_datapath.system.md_grid_datapath.cache        25481                       # number of overall (read+write) accesses
system.md_grid_datapath.cache.overall_accesses::total        25481                       # number of overall (read+write) accesses
system.md_grid_datapath.cache.ReadReq_miss_rate::.md_grid_datapath.system.md_grid_datapath.cache     0.027913                       # miss rate for ReadReq accesses
system.md_grid_datapath.cache.ReadReq_miss_rate::total     0.027913                       # miss rate for ReadReq accesses
system.md_grid_datapath.cache.demand_miss_rate::.md_grid_datapath.system.md_grid_datapath.cache     0.013696                       # miss rate for demand accesses
system.md_grid_datapath.cache.demand_miss_rate::total     0.013696                       # miss rate for demand accesses
system.md_grid_datapath.cache.overall_miss_rate::.md_grid_datapath.system.md_grid_datapath.cache     0.013696                       # miss rate for overall accesses
system.md_grid_datapath.cache.overall_miss_rate::total     0.013696                       # miss rate for overall accesses
system.md_grid_datapath.cache.ReadReq_avg_miss_latency::.md_grid_datapath.system.md_grid_datapath.cache 137077.363897                       # average ReadReq miss latency
system.md_grid_datapath.cache.ReadReq_avg_miss_latency::total 137077.363897                       # average ReadReq miss latency
system.md_grid_datapath.cache.demand_avg_miss_latency::.md_grid_datapath.system.md_grid_datapath.cache 137077.363897                       # average overall miss latency
system.md_grid_datapath.cache.demand_avg_miss_latency::total 137077.363897                       # average overall miss latency
system.md_grid_datapath.cache.overall_avg_miss_latency::.md_grid_datapath.system.md_grid_datapath.cache 137077.363897                       # average overall miss latency
system.md_grid_datapath.cache.overall_avg_miss_latency::total 137077.363897                       # average overall miss latency
system.md_grid_datapath.cache.blocked_cycles::no_mshrs            4                       # number of cycles access was blocked
system.md_grid_datapath.cache.blocked_cycles::no_targets            0                       # number of cycles access was blocked
system.md_grid_datapath.cache.blocked::no_mshrs            1                       # number of cycles access was blocked
system.md_grid_datapath.cache.blocked::no_targets            0                       # number of cycles access was blocked
system.md_grid_datapath.cache.avg_blocked_cycles::no_mshrs            4                       # average number of cycles each access was blocked
system.md_grid_datapath.cache.avg_blocked_cycles::no_targets          nan                       # average number of cycles each access was blocked
system.md_grid_datapath.cache.unused_prefetches           95                       # number of HardPF blocks evicted w/o reference
system.md_grid_datapath.cache.writebacks::.writebacks           77                       # number of writebacks
system.md_grid_datapath.cache.writebacks::total           77                       # number of writebacks
system.md_grid_datapath.cache.ReadReq_mshr_hits::.md_grid_datapath.system.md_grid_datapath.cache            4                       # number of ReadReq MSHR hits
system.md_grid_datapath.cache.ReadReq_mshr_hits::total            4                       # number of ReadReq MSHR hits
system.md_grid_datapath.cache.demand_mshr_hits::.md_grid_datapath.system.md_grid_datapath.cache            4                       # number of demand (read+write) MSHR hits
system.md_grid_datapath.cache.demand_mshr_hits::total            4                       # number of demand (read+write) MSHR hits
system.md_grid_datapath.cache.overall_mshr_hits::.md_grid_datapath.system.md_grid_datapath.cache            4                       # number of overall MSHR hits
system.md_grid_datapath.cache.overall_mshr_hits::total            4                       # number of overall MSHR hits
system.md_grid_datapath.cache.ReadReq_mshr_misses::.md_grid_datapath.system.md_grid_datapath.cache          345                       # number of ReadReq MSHR misses
system.md_grid_datapath.cache.ReadReq_mshr_misses::total          345                       # number of ReadReq MSHR misses
system.md_grid_datapath.cache.HardPFReq_mshr_misses::.md_grid_datapath.cache.prefetcher          375                       # number of HardPFReq MSHR misses
system.md_grid_datapath.cache.HardPFReq_mshr_misses::total          375                       # number of HardPFReq MSHR misses
system.md_grid_datapath.cache.demand_mshr_misses::.md_grid_datapath.system.md_grid_datapath.cache          345                       # number of demand (read+write) MSHR misses
system.md_grid_datapath.cache.demand_mshr_misses::total          345                       # number of demand (read+write) MSHR misses
system.md_grid_datapath.cache.overall_mshr_misses::.md_grid_datapath.system.md_grid_datapath.cache          345                       # number of overall MSHR misses
system.md_grid_datapath.cache.overall_mshr_misses::.md_grid_datapath.cache.prefetcher          375                       # number of overall MSHR misses
system.md_grid_datapath.cache.overall_mshr_misses::total          720                       # number of overall MSHR misses
system.md_grid_datapath.cache.ReadReq_mshr_miss_latency::.md_grid_datapath.system.md_grid_datapath.cache     46675652                       # number of ReadReq MSHR miss cycles
system.md_grid_datapath.cache.ReadReq_mshr_miss_latency::total     46675652                       # number of ReadReq MSHR miss cycles
system.md_grid_datapath.cache.HardPFReq_mshr_miss_latency::.md_grid_datapath.cache.prefetcher     34033783                       # number of HardPFReq MSHR miss cycles
system.md_grid_datapath.cache.HardPFReq_mshr_miss_latency::total     34033783                       # number of HardPFReq MSHR miss cycles
system.md_grid_datapath.cache.demand_mshr_miss_latency::.md_grid_datapath.system.md_grid_datapath.cache     46675652                       # number of demand (read+write) MSHR miss cycles
system.md_grid_datapath.cache.demand_mshr_miss_latency::total     46675652                       # number of demand (read+write) MSHR miss cycles
system.md_grid_datapath.cache.overall_mshr_miss_latency::.md_grid_datapath.system.md_grid_datapath.cache     46675652                       # number of overall MSHR miss cycles
system.md_grid_datapath.cache.overall_mshr_miss_latency::.md_grid_datapath.cache.prefetcher     34033783                       # number of overall MSHR miss cycles
system.md_grid_datapath.cache.overall_mshr_miss_latency::total     80709435                       # number of overall MSHR miss cycles
system.md_grid_datapath.cache.ReadReq_mshr_miss_rate::.md_grid_datapath.system.md_grid_datapath.cache     0.027593                       # mshr miss rate for ReadReq accesses
system.md_grid_datapath.cache.ReadReq_mshr_miss_rate::total     0.027593                       # mshr miss rate for ReadReq accesses
system.md_grid_datapath.cache.HardPFReq_mshr_miss_rate::.md_grid_datapath.cache.prefetcher          inf                       # mshr miss rate for HardPFReq accesses
system.md_grid_datapath.cache.HardPFReq_mshr_miss_rate::total          inf                       # mshr miss rate for HardPFReq accesses
system.md_grid_datapath.cache.demand_mshr_miss_rate::.md_grid_datapath.system.md_grid_datapath.cache     0.013540                       # mshr miss rate for demand accesses
system.md_grid_datapath.cache.demand_mshr_miss_rate::total     0.013540                       # mshr miss rate for demand accesses
system.md_grid_datapath.cache.overall_mshr_miss_rate::.md_grid_datapath.system.md_grid_datapath.cache     0.013540                       # mshr miss rate for overall accesses
system.md_grid_datapath.cache.overall_mshr_miss_rate::.md_grid_datapath.cache.prefetcher          inf                       # mshr miss rate for overall accesses
system.md_grid_datapath.cache.overall_mshr_miss_rate::total     0.028256                       # mshr miss rate for overall accesses
system.md_grid_datapath.cache.ReadReq_avg_mshr_miss_latency::.md_grid_datapath.system.md_grid_datapath.cache 135291.744928                       # average ReadReq mshr miss latency
system.md_grid_datapath.cache.ReadReq_avg_mshr_miss_latency::total 135291.744928                       # average ReadReq mshr miss latency
system.md_grid_datapath.cache.HardPFReq_avg_mshr_miss_latency::.md_grid_datapath.cache.prefetcher 90756.754667                       # average HardPFReq mshr miss latency
system.md_grid_datapath.cache.HardPFReq_avg_mshr_miss_latency::total 90756.754667                       # average HardPFReq mshr miss latency
system.md_grid_datapath.cache.demand_avg_mshr_miss_latency::.md_grid_datapath.system.md_grid_datapath.cache 135291.744928                       # average overall mshr miss latency
system.md_grid_datapath.cache.demand_avg_mshr_miss_latency::total 135291.744928                       # average overall mshr miss latency
system.md_grid_datapath.cache.overall_avg_mshr_miss_latency::.md_grid_datapath.system.md_grid_datapath.cache 135291.744928                       # average overall mshr miss latency
system.md_grid_datapath.cache.overall_avg_mshr_miss_latency::.md_grid_datapath.cache.prefetcher 90756.754667                       # average overall mshr miss latency
system.md_grid_datapath.cache.overall_avg_mshr_miss_latency::total 112096.437500                       # average overall mshr miss latency
system.md_grid_datapath.cache.replacements          220                       # number of replacements
system.membus.snoop_filter.tot_requests           940                       # Total number of requests made to the snoop filter.
system.membus.snoop_filter.hit_single_requests          220                       # Number of requests hitting in the snoop filter with a single holder of the requested data.
system.membus.snoop_filter.hit_multi_requests            0                       # Number of requests hitting in the snoop filter with multiple (>1) holders of the requested data.
system.membus.snoop_filter.tot_snoops               0                       # Total number of snoops made to the snoop filter.
system.membus.snoop_filter.hit_single_snoops            0                       # Number of snoops hitting in the snoop filter with a single holder of the requested data.
system.membus.snoop_filter.hit_multi_snoops            0                       # Number of snoops hitting in the snoop filter with multiple (>1) holders of the requested data.
system.membus.pwrStateResidencyTicks::UNDEFINED    308110000                       # Cumulative time (in ticks) in various power states
system.membus.trans_dist::ReadResp                720                       # Transaction distribution
system.membus.trans_dist::WritebackDirty           77                       # Transaction distribution
system.membus.trans_dist::CleanEvict              143                       # Transaction distribution
system.membus.trans_dist::ReadSharedReq           720                       # Transaction distribution
system.membus.pkt_count_system.md_grid_datapath.cache.mem_side::system.mem_ctrls.port         1660                       # Packet count per connected master and slave (bytes)
system.membus.pkt_count::total                   1660                       # Packet count per connected master and slave (bytes)
system.membus.pkt_size_system.md_grid_datapath.cache.mem_side::system.mem_ctrls.port        25504                       # Cumulative packet size per connected master and slave (bytes)
system.membus.pkt_size::total                   25504                       # Cumulative packet size per connected master and slave (bytes)
system.membus.snoops                                0                       # Total snoops (count)
system.membus.snoopTraffic                          0                       # Total snoop traffic (bytes)
system.membus.snoop_fanout::samples               720                       # Request fanout histogram
system.membus.snoop_fanout::mean                    0                       # Request fanout histogram
system.membus.snoop_fanout::stdev                   0                       # Request fanout histogram
system.membus.snoop_fanout::underflows              0      0.00%      0.00% # Request fanout histogram
system.membus.snoop_fanout::0                     720    100.00%    100.00% # Request fanout histogram
system.membus.snoop_fanout::1                       0      0.00%    100.00% # Request fanout histogram
system.membus.snoop_fanout::2                       0      0.00%    100.00% # Request fanout histogram
system.membus.snoop_fanout::overflows               0      0.00%    100.00% # Request fanout histogram
system.membus.snoop_fanout::min_value               0                       # Request fanout histogram
system.membus.snoop_fanout::max_value               0                       # Request fanout histogram
system.membus.snoop_fanout::total                 720                       # Request fanout histogram
system.membus.reqLayer0.occupancy             2557125                       # Layer occupancy (ticks)
system.membus.reqLayer0.utilization               0.8                       # Layer utilization (%)
system.membus.respLayer1.occupancy            4589693                       # Layer occupancy (ticks)
system.membus.respLayer1.utilization              1.5                       # Layer utilization (%)

---------- End Simulation Statistics   ----------
